AquaCrop 6.1 (May 2018) - Output created on (date) : 5/16/2025   at (time) : 10:14:27 AM
Soil Water content in soil profile (WC) and root zone (Wr)

** Run number:  1   -- Water content in soil profile (WCTot layer: 0.00 - 1.55 m) and root zone (Wr with Zx = 1.50 m)
   Day Month  Year   DAP Stage     WCTot   Wr(Zx)      Z       Wr    Wr(SAT)    Wr(FC)   Wr(exp)   Wr(sto)   Wr(sen)   Wr(PWP)
                                     mm       mm       m       mm        mm        mm        mm        mm        mm        mm
    22     3  2020     1    1     463.3    448.3    0.30     88.3     150.0      90.0      78.0      46.1      48.0      30.0
    23     3  2020     2    1     462.0    447.0    0.30     87.0     150.0      90.0      78.0      45.8      48.0      30.0
    24     3  2020     3    1     460.5    445.5    0.30     85.5     150.0      90.0      78.0      46.6      48.0      30.0
    25     3  2020     4    1     459.0    444.0    0.30     84.0     150.0      90.0      78.0      47.3      48.0      30.0
    26     3  2020     5    1     457.6    442.6    0.30     82.6     150.0      90.0      78.0      47.3      48.0      30.0
    27     3  2020     6    1     456.4    441.4    0.30     81.4     150.0      90.0      78.0      47.6      48.0      30.0
    28     3  2020     7    1     455.4    440.4    0.30     80.4     150.0      90.0      78.0      47.1      48.0      30.0
    29     3  2020     8    1     454.7    439.7    0.31     84.0     157.1      94.3      81.7      47.8      50.3      31.4
    30     3  2020     9    1     453.4    438.4    0.35     92.4     173.3     104.0      90.1      52.9      55.5      34.7
    31     3  2020    10    1     452.4    437.4    0.38    100.0     187.8     112.7      97.6      57.3      60.1      37.6
     1     4  2020    11    1     451.1    436.1    0.40    106.7     201.1     120.6     104.5      62.8      64.3      40.2
     2     4  2020    12    1     449.9    434.9    0.43    113.0     213.5     128.1     111.0      67.1      68.3      42.7
     3     4  2020    13    1     448.6    433.6    0.45    118.8     225.2     135.1     117.1      72.1      72.1      45.0
     4     4  2020    14    2     447.9    432.9    0.47    124.8     236.4     141.8     112.6      73.4      69.2      47.3
     5     4  2020    15    2     446.7    431.7    0.49    130.0     247.1     148.3     123.5      80.6      75.9      49.4
     6     4  2020    16    2     445.0    430.0    0.51    134.5     257.5     154.5     132.8      86.8      81.7      51.5
     7     4  2020    17    2     443.9    428.9    0.53    139.4     267.5     160.5     132.8      86.7      81.7      53.5
     8     4  2020    18    2     442.8    427.8    0.55    144.1     277.2     166.3     139.3      91.0      85.7      55.4
     9     4  2020    19    2     441.9    426.9    0.57    148.9     286.6     172.0     141.5      92.4      87.0      57.3
    10     4  2020    20    2     441.4    426.4    0.59    153.9     295.8     177.5     143.4      93.6      88.2      59.2
    11     4  2020    21    2     440.9    425.9    0.61    158.7     304.8     182.9     147.8      96.4      90.9      61.0
    12     4  2020    22    2     440.0    425.0    0.63    163.2     313.6     188.2     159.9     104.4      98.4      62.7
    13     4  2020    23    2     439.7    424.7    0.64    168.0     322.2     193.3     155.8     101.6      95.8      64.4
    14     4  2020    24    2     439.3    424.3    0.66    172.7     330.6     198.4     161.3     105.2      99.2      66.1
    15     4  2020    25    2     438.5    423.5    0.68    176.8     338.9     203.3     169.3     110.5     104.1      67.8
    16     4  2020    26    2     437.6    422.6    0.69    180.8     347.0     208.2     174.4     113.9     107.3      69.4
    17     4  2020    27    2     436.9    421.9    0.71    184.9     355.0     213.0     174.2     113.7     107.2      71.0
    18     4  2020    28    2     436.0    421.0    0.73    188.7     362.9     217.8     181.8     118.7     111.8      72.6
    19     4  2020    29    2     435.4    420.4    0.74    192.8     370.7     222.4     184.6     120.5     113.6      74.1
    20     4  2020    30    2     434.7    419.7    0.76    196.7     378.3     227.0     189.5     123.8     116.6      75.7
    21     4  2020    31    2     433.4    418.4    0.77    199.9     385.9     231.5     196.1     128.1     120.7      77.2
    22     4  2020    32    2     432.3    417.3    0.79    203.3     393.3     236.0     198.8     129.8     122.3      78.7
    23     4  2020    33    2     431.1    416.1    0.80    206.5     400.7     240.4     201.3     131.5     123.8      80.1
    24     4  2020    34    2     429.5    414.5    0.82    209.3     407.9     244.7     209.7     137.1     129.0      81.6
    25     4  2020    35    2     428.4    413.4    0.83    212.5     415.1     249.1     204.9     133.7     126.0      83.0
    26     4  2020    36    2     427.3    412.3    0.84    215.6     422.2     253.3     209.0     136.4     128.6      84.4
    27     4  2020    37    2     425.8    410.8    0.86    218.3     429.2     257.5     218.8     143.0     134.6      85.8
    28     4  2020    38    2     424.1    409.1    0.87    220.7     436.1     261.7     224.2     146.6     138.0      87.2
    29     4  2020    39    2     423.2    408.2    0.89    223.9     443.0     265.8     212.9     138.8     130.9      88.6
    30     4  2020    40    2     421.8    406.8    0.90    226.7     449.8     269.9     222.7     145.4     137.0      90.0
     1     5  2020    41    2     420.2    405.2    0.91    229.1     456.5     273.9     229.4     149.8     141.1      91.3
     2     5  2020    42    2     419.3    404.3    0.93    232.2     463.2     277.9     223.2     145.6     137.3      92.6
     3     5  2020    43    2     418.3    403.3    0.94    235.2     469.8     281.9     229.2     149.5     140.9      94.0
     4     5  2020    44    2     417.6    402.6    0.95    238.4     476.3     285.8     230.3     150.2     141.6      95.3
     5     5  2020    45    2     416.8    401.8    0.97    241.5     482.8     289.7     234.8     153.2     144.4      96.6
     6     5  2020    46    2     415.1    400.1    0.98    243.6     489.2     293.5     246.5     161.0     151.7      97.8
     7     5  2020    47    2     413.5    398.5    0.99    245.9     495.6     297.4     245.4     160.2     150.9      99.1
     8     5  2020    48    2     411.1    396.1    1.00    247.2     501.9     301.2     256.6     167.7     157.9     100.4
     9     5  2020    49    2     408.3    393.3    1.02    248.3     508.2     304.9     262.0     171.3     161.2     101.6
    10     5  2020    50    2     405.6    390.6    1.03    249.2     514.4     308.7     263.7     172.4     162.3     102.9
    11     5  2020    51    2     414.8    399.8    1.04    262.1     520.6     312.4     251.7     164.1     154.8     104.1
    12     5  2020    52    2     413.1    398.1    1.05    264.2     526.7     316.0     257.0     167.6     158.0     105.3
    13     5  2020    53    2     410.8    395.8    1.07    265.5     532.8     319.7     262.3     171.2     161.3     106.6
    14     5  2020    54    2     408.4    393.4    1.08    266.7     538.9     323.3     265.2     173.1     163.1     107.8
    15     5  2020    55    2     405.7    390.7    1.09    267.6     544.9     326.9     273.0     178.3     167.9     109.0
    16     5  2020    56    2     403.1    388.1    1.10    268.6     550.9     330.5     277.6     181.3     170.8     110.2
    17     5  2020    57    2     399.9    384.9    1.11    269.0     556.8     334.1     283.8     185.5     174.6     111.4
    18     5  2020    58    2     395.9    380.9    1.13    268.5     562.7     337.6     293.4     191.9     180.6     112.5
    19     5  2020    59    2     392.6    377.6    1.14    268.7     568.5     341.1     288.1     188.2     177.3     113.7
    20     5  2020    60    2     389.4    374.4    1.15    269.0     574.3     344.6     291.1     190.2     179.1     114.9
    21     5  2020    61    2     385.9    370.9    1.16    268.9     580.1     348.1     297.4     194.4     183.0     116.0
    22     5  2020    62    2     382.7    367.7    1.17    269.2     585.8     351.5     306.4     200.3     188.5     117.2
    23     5  2020    63    2     380.1    365.1    1.18    270.0     591.6     354.9     293.8     191.8     180.7     118.3
    24     5  2020    64    2     391.7    376.7    1.19    285.1     597.2     358.3     294.0     191.8     180.8     119.4
    25     5  2020    65    2     390.3    375.3    1.21    287.0     602.9     361.7     287.0     187.1     176.5     120.6
    26     5  2020    66    2     386.6    371.6    1.22    286.7     608.5     365.1     307.5     200.9     189.2     121.7
    27     5  2020    67    2     382.6    367.6    1.23    286.1     614.1     368.4     314.8     205.7     193.7     122.8
    28     5  2020    68    2     378.9    363.9    1.24    285.7     619.6     371.8     314.0     205.2     193.2     123.9
    29     5  2020    69    2     375.1    360.1    1.25    285.2     625.1     375.1     318.7     208.2     196.1     125.0
    30     5  2020    70    2     371.6    356.6    1.26    285.0     630.6     378.4     317.8     207.5     195.5     126.1
    31     5  2020    71    2     367.2    352.2    1.27    283.9     636.1     381.6     328.0     214.4     201.8     127.2
     1     6  2020    72    2     362.3    347.3    1.28    282.2     641.5     384.9     335.5     219.4     206.4     128.3
     2     6  2020    73    2     356.9    341.9    1.29    280.1     646.9     388.1     343.0     224.4     211.1     129.4
     3     6  2020    74    2     351.9    336.9    1.30    278.2     652.3     391.4     342.1     223.7     210.5     130.5
     4     6  2020    75    2     348.2    333.2    1.32    277.8     657.6     394.6     342.0     223.6     210.4     131.5
     5     6  2020    76    2     345.0    330.0    1.33    277.7     663.0     397.8     329.2     214.9     202.5     132.6
     6     6  2020    77    2     340.7    325.7    1.34    276.6     668.3     401.0     342.6     223.9     210.8     133.7
     7     6  2020    78    2     337.3    322.3    1.35    276.4     673.5     404.1     336.5     219.7     207.0     134.7
     8     6  2020    79    2     332.6    317.6    1.36    274.9     678.8     407.3     350.0     228.8     215.4     135.8
     9     6  2020    80    2     328.6    313.6    1.37    274.1     684.0     410.4     345.7     225.8     212.7     136.8
    10     6  2020    81    2     324.2    309.2    1.38    272.7     689.2     413.5     353.4     230.9     217.4     137.8
    11     6  2020    82    2     320.8    305.8    1.39    272.5     694.4     416.7     344.9     225.1     212.1     138.9
    12     6  2020    83    2     319.8    304.8    1.40    274.5     699.6     419.7     357.6     233.7     220.0     139.9
    13     6  2020    84    2     316.9    301.9    1.41    274.7     704.7     422.8     373.7     244.5     230.0     140.9
    14     6  2020    85    2     311.5    296.5    1.42    272.4     709.8     425.9     368.1     240.6     226.5     142.0
    15     6  2020    86    2     305.9    290.9    1.43    269.8     714.9     429.0     373.8     244.5     230.1     143.0
    16     6  2020    87    2     300.2    285.2    1.44    267.2     720.0     432.0     376.5     246.2     231.7     144.0
    17     6  2020    88    2     294.2    279.2    1.45    264.2     725.0     435.0     382.3     250.1     235.3     145.0
    18     6  2020    89    2     290.5    275.5    1.46    263.5     730.1     438.0     377.5     246.8     232.3     146.0
    19     6  2020    90    2     288.3    273.3    1.47    264.3     735.1     441.1     356.5     232.5     219.2     147.0
    20     6  2020    91    2     284.7    269.7    1.48    263.8     740.1     444.0     370.8     242.1     228.1     148.0
    21     6  2020    92    2     279.8    264.8    1.49    261.8     745.0     447.0     384.2     251.1     236.4     149.0
    22     6  2020    93    2     273.9    258.9    1.50    258.9     750.0     450.0     398.8     260.9     245.5     150.0
    23     6  2020    94    2     268.4    253.4    1.50    253.4     750.0     450.0     394.4     258.0     242.7     150.0
    24     6  2020    95    2     263.5    248.5    1.50    248.5     750.0     450.0     390.0     255.0     240.0     150.0
    25     6  2020    96    2     258.3    243.3    1.50    243.3     750.0     450.0     397.7     260.2     244.8     150.0
    26     6  2020    97    2     257.4    242.4    1.50    242.4     750.0     450.0     392.2     256.5     241.4     150.0
    27     6  2020    98    2     252.3    237.3    1.50    237.3     750.0     450.0     404.3     264.6     248.9     150.0
    28     6  2020    99    2     247.9    232.9    1.50    232.9     750.0     450.0     393.3     257.2     267.0     150.0
    29     6  2020   100    2     247.9    232.9    1.50    232.9     750.0     450.0     383.4     250.6     261.6     150.0
    30     6  2020   101    2     243.0    228.0    1.50    228.0     750.0     450.0     401.0     262.4     271.2     150.0
     1     7  2020   102    2     249.2    234.2    1.50    234.2     750.0     450.0     388.9     254.3     264.6     150.0
     2     7  2020   103    2     246.1    231.1    1.50    231.1     750.0     450.0     381.2     249.1     234.5     150.0
     3     7  2020   104    2     242.1    227.1    1.50    227.1     750.0     450.0     385.6     252.0     237.3     150.0
     4     7  2020   105    2     237.7    222.7    1.50    222.7     750.0     450.0     399.9     261.7     270.6     150.0
     5     7  2020   106    2     236.1    221.1    1.50    221.1     750.0     450.0     403.2     263.9     272.4     150.0
     6     7  2020   107    2     232.3    217.3    1.50    217.3     750.0     450.0     392.2     256.5     266.4     150.0
     7     7  2020   108    2     229.6    214.6    1.50    214.6     750.0     450.0     385.6     252.0     262.8     150.0
     8     7  2020   109    2     228.8    213.8    1.50    213.8     750.0     450.0     363.7     237.2     250.8     150.0
     9     7  2020   110    2     233.0    218.0    1.50    218.0     750.0     450.0     374.6     244.6     256.8     150.0
    10     7  2020   111    2     229.6    214.6    1.50    214.6     750.0     450.0     393.3     257.2     242.0     150.0
    11     7  2020   112    2     226.9    211.9    1.50    211.9     750.0     450.0     380.1     248.3     259.8     150.0
    12     7  2020   113    2     224.2    209.2    1.50    209.2     750.0     450.0     383.4     250.6     261.6     150.0
    13     7  2020   114    2     221.5    206.5    1.50    206.5     750.0     450.0     387.8     253.5     264.0     150.0
    14     7  2020   115    2     218.5    203.5    1.50    203.5     750.0     450.0     402.1     263.2     271.8     150.0
    15     7  2020   116    2     231.4    216.4    1.50    216.4     750.0     450.0     363.7     237.2     250.8     150.0
    16     7  2020   117    2     230.9    215.9    1.50    215.9     750.0     450.0     373.6     243.9     229.8     150.0
    17     7  2020   118    2     227.4    212.4    1.50    212.4     750.0     450.0     373.6     243.9     229.8     150.0
    18     7  2020   119    2     222.5    207.5    1.50    207.5     750.0     450.0     387.8     253.5     238.6     150.0
    19     7  2020   120    2     219.9    204.9    1.50    204.9     750.0     450.0     395.5     258.7     243.4     150.0
    20     7  2020   121    2     217.0    202.0    1.50    202.0     750.0     450.0     387.8     253.5     264.0     150.0
    21     7  2020   122    2     214.3    199.3    1.50    199.3     750.0     450.0     386.7     252.8     263.4     150.0
    22     7  2020   123    2     212.6    197.6    1.50    197.6     750.0     450.0     382.3     249.8     261.0     150.0
    23     7  2020   124    2     210.4    195.4    1.50    195.4     750.0     450.0     377.9     246.8     258.6     150.0
    24     7  2020   125    2     207.8    193.0    1.50    193.0     750.0     450.0     404.3     264.6     273.0     150.0
    25     7  2020   126    2     205.9    191.1    1.50    191.1     750.0     450.0     386.7     252.8     263.4     150.0
    26     7  2020   127    2     205.9    191.0    1.50    191.0     750.0     450.0     373.6     243.9     256.2     150.0
    27     7  2020   128    3     203.7    188.8    1.50    188.8     750.0     450.0     385.6     252.0     262.8     150.0
    28     7  2020   129    3     201.1    186.3    1.50    186.3     750.0     450.0     402.1     263.2     271.8     150.0
    29     7  2020   130    3     199.1    184.3    1.50    184.3     750.0     450.0     393.3     257.2     267.0     150.0
    30     7  2020   131    3     197.6    182.8    1.50    182.8     750.0     450.0     388.9     254.3     264.6     150.0
    31     7  2020   132    3     196.2    181.4    1.50    181.4     750.0     450.0     388.9     254.3     264.6     150.0
     1     8  2020   133    3     194.7    179.9    1.50    179.9     750.0     450.0     404.3     264.6     273.0     150.0
     2     8  2020   134    3     195.0    180.2    1.50    180.2     750.0     450.0     374.6     244.6     256.8     150.0
     3     8  2020   135    3     193.5    178.7    1.50    178.7     750.0     450.0     375.7     245.4     257.4     150.0
     4     8  2020   136    3     192.0    177.1    1.50    177.1     750.0     450.0     379.0     247.6     259.2     150.0
     5     8  2020   137    3     190.6    176.0    1.50    176.0     750.0     450.0     394.4     258.0     267.6     150.0
     6     8  2020   138    3     189.5    175.0    1.50    175.0     750.0     450.0     402.1     263.2     271.8     150.0
     7     8  2020   139    3     188.5    174.2    1.50    174.2     750.0     450.0     397.7     260.2     269.4     150.0
     8     8  2020   140    3     187.4    173.4    1.50    173.4     750.0     450.0     403.2     263.9     272.4     150.0
     9     8  2020   141    3     186.5    172.7    1.50    172.7     750.0     450.0     406.4     266.1     274.2     150.0
    10     8  2020   142    3     186.7    173.1    1.50    173.1     750.0     450.0     377.9     246.8     258.6     150.0
    11     8  2020   143    4     185.0    171.6    1.50    171.6     750.0     450.0     402.1     263.2     271.8     150.0
    12     8  2020   144    4     184.2    171.0    1.50    171.0     750.0     450.0     397.7     260.2     269.4     150.0
    13     8  2020   145    4     183.6    170.5    1.50    170.5     750.0     450.0     388.9     254.3     264.6     150.0
    14     8  2020   146    4     183.1    170.1    1.50    170.1     750.0     450.0     377.9     246.8     258.6     150.0
    15     8  2020   147    4     182.6    169.8    1.50    169.8     750.0     450.0     380.1     248.3     259.8     150.0
    16     8  2020   148    4     182.1    169.3    1.50    169.3     750.0     450.0     395.5     258.7     268.2     150.0
    17     8  2020   149    4     181.6    169.0    1.50    169.0     750.0     450.0     396.6     259.4     268.8     150.0
    18     8  2020   150    4     182.1    169.6    1.50    169.6     750.0     450.0     371.4     242.4     255.0     150.0
    19     8  2020   151    4     181.0    168.5    1.50    168.5     750.0     450.0     376.8     246.1     258.0     150.0
    20     8  2020   152    4     180.6    168.2    1.50    168.2     750.0     450.0     391.1     255.7     265.8     150.0
    21     8  2020   153    4     180.3    168.0    1.50    168.0     750.0     450.0     410.8     269.1     276.6     150.0
    22     8  2020   154    4     184.0    171.7    1.50    171.7     750.0     450.0     371.4     242.4     255.0     150.0
    23     8  2020   155    4     183.8    171.4    1.50    171.4     750.0     450.0     377.9     246.8     258.6     150.0
    24     8  2020   156    4     183.5    171.2    1.50    171.2     750.0     450.0     377.9     246.8     258.6     150.0
    25     8  2020   157    4     183.3    171.0    1.50    171.0     750.0     450.0     377.9     246.8     258.6     150.0
    26     8  2020   158    4     183.2    170.9    1.50    170.9     750.0     450.0     383.4     250.6     261.6     150.0
    27     8  2020   159    4     183.1    170.8    1.50    170.8     750.0     450.0     375.7     245.4     257.4     150.0
    28     8  2020   160    4     183.4    171.0    1.50    171.0     750.0     450.0     372.5     243.1     255.6     150.0
    29     8  2020   161    4     183.0    170.7    1.50    170.7     750.0     450.0     376.8     246.1     258.0     150.0
    30     8  2020   162    4     203.9    191.6    1.50    191.6     750.0     450.0     363.7     237.2     250.8     150.0
    31     8  2020   163    4     203.8    191.5    1.50    191.5     750.0     450.0     363.7     237.2     223.6     150.0
     1     9  2020   164    4     202.5    190.2    1.50    190.2     750.0     450.0     360.4     235.0     221.6     150.0
     2     9  2020   165    4     202.7    190.4    1.50    190.4     750.0     450.0     357.1     232.8     219.5     150.0
     3     9  2020   166    4     207.6    195.3    1.50    195.3     750.0     450.0     372.5     243.1     229.1     150.0
     4     9  2020   167    4     206.5    194.2    1.50    194.2     750.0     450.0     361.5     235.7     222.3     150.0
     5     9  2020   168    4     205.5    193.2    1.50    193.2     750.0     450.0     354.9     231.3     218.2     150.0
     6     9  2020   169    4     204.3    192.0    1.50    192.0     750.0     450.0     363.7     237.2     223.6     150.0
     7     9  2020   170    4     203.3    191.0    1.50    191.0     750.0     450.0     364.8     237.9     224.3     150.0
     8     9  2020   171    4     202.1    189.7    1.50    189.7     750.0     450.0     374.6     244.6     230.5     150.0
     9     9  2020   172    4     200.9    188.6    1.50    188.6     750.0     450.0     375.7     245.4     231.1     150.0
    10     9  2020   173    4     200.2    187.8    1.50    187.8     750.0     450.0     363.7     237.2     223.6     150.0
    11     9  2020   174    4     199.4    187.1    1.50    187.1     750.0     450.0     365.9     238.7     225.0     150.0
    12     9  2020   175    4     198.5    186.2    1.50    186.2     750.0     450.0     376.8     246.1     231.8     150.0
    13     9  2020   176    4     197.9    185.5    1.50    185.5     750.0     450.0     367.0     239.4     225.7     150.0
    14     9  2020   177    4     197.2    184.9    1.50    184.9     750.0     450.0     373.6     243.9     229.8     150.0
    15     9  2020   178    4     196.4    184.1    1.50    184.1     750.0     450.0     381.2     249.1     234.5     150.0
    16     9  2020   179    4     195.8    183.5    1.50    183.5     750.0     450.0     376.8     246.1     231.8     150.0
    17     9  2020   180    4     195.4    183.1    1.50    183.1     750.0     450.0     363.7     237.2     223.6     150.0
    18     9  2020   181    4     195.1    182.8    1.50    182.8     750.0     450.0     360.4     235.0     221.6     150.0
    19     9  2020   182    4     194.7    182.4    1.50    182.4     750.0     450.0     367.0     239.4     225.7     150.0
    20     9  2020   183    4     194.3    182.0    1.50    182.0     750.0     450.0     369.2     240.9     227.0     150.0
    21     9  2020   184    4     194.0    181.7    1.50    181.7     750.0     450.0     367.0     239.4     225.7     150.0
    22     9  2020   185    4     193.6    181.3    1.50    181.3     750.0     450.0     370.3     241.7     227.7     150.0
    23     9  2020   186    4     193.3    181.0    1.50    181.0     750.0     450.0     369.2     240.9     227.0     150.0
    24     9  2020   187    4     197.6    185.3    1.50    185.3     750.0     450.0     368.1     240.2     226.4     150.0
    25     9  2020   188    4     203.8    191.4    1.50    191.4     750.0     450.0     348.3     226.8     214.1     150.0
    26     9  2020   189    4     219.3    207.0    1.50    207.0     750.0     450.0     345.0     224.6     212.0     150.0
    27     9  2020   190    4     218.6    206.3    1.50    206.3     750.0     450.0     348.3     226.8     214.1     150.0
    28     9  2020   191    4     217.4    205.1    1.50    205.1     750.0     450.0     356.0     232.0     218.9     150.0
    29     9  2020   192    4     216.4    204.1    1.50    204.1     750.0     450.0     351.6     229.0     216.1     150.0
    30     9  2020   193    4     215.4    203.1    1.50    203.1     750.0     450.0     352.7     229.8     216.8     150.0
     1    10  2020   194    4     214.7    202.4    1.50    202.4     750.0     450.0     348.3     226.8     214.1     150.0
     2    10  2020   195    4     213.8    201.5    1.50    201.5     750.0     450.0     350.5     228.3     215.5     150.0
     3    10  2020   196    4     212.6    200.3    1.50    200.3     750.0     450.0     359.3     234.2     220.9     150.0
     4    10  2020   197    4     211.7    199.4    1.50    199.4     750.0     450.0     354.9     231.3     218.2     150.0

** Run number:  2   -- Water content in soil profile (WCTot layer: 0.00 - 1.55 m) and root zone (Wr with Zx = 1.50 m)
   Day Month  Year   DAP Stage     WCTot   Wr(Zx)      Z       Wr    Wr(SAT)    Wr(FC)   Wr(exp)   Wr(sto)   Wr(sen)   Wr(PWP)
                                     mm       mm       m       mm        mm        mm        mm        mm        mm        mm
    22     3  2021     1    1     463.4    448.4    0.30     88.4     150.0      90.0      78.0      46.3      48.0      30.0
    23     3  2021     2    1     462.4    447.4    0.30     87.4     150.0      90.0      78.0      45.4      48.0      30.0
    24     3  2021     3    1     460.9    445.9    0.30     85.9     150.0      90.0      78.0      46.4      48.0      30.0
    25     3  2021     4    1     459.6    444.6    0.30     84.6     150.0      90.0      78.0      46.6      48.0      30.0
    26     3  2021     5    1     458.5    443.5    0.30     83.5     150.0      90.0      78.0      46.6      48.0      30.0
    27     3  2021     6    1     458.2    443.2    0.30     83.2     150.0      90.0      78.0      46.7      48.0      30.0
    28     3  2021     7    1     456.1    441.1    0.30     81.1     150.0      90.0      78.0      47.0      48.0      30.0
    29     3  2021     8    1     453.6    438.6    0.31     82.9     157.1      94.3      81.7      51.1      50.3      31.4
    30     3  2021     9    1     451.9    436.9    0.35     90.9     173.3     104.0      90.1      56.0      55.5      34.7
    31     3  2021    10    1     450.6    435.6    0.38     98.3     187.8     112.7      97.6      60.1      60.1      37.6
     1     4  2021    11    1     449.6    434.6    0.40    105.2     201.1     120.6     104.5      64.0      64.3      40.2
     2     4  2021    12    1     448.8    433.8    0.43    111.9     213.5     128.1     111.0      66.7      68.3      42.7
     3     4  2021    13    1     448.1    433.1    0.45    118.2     225.2     135.1     117.1      69.7      72.1      45.0
     4     4  2021    14    2     447.4    432.4    0.47    124.2     236.4     141.8     113.6      74.1      69.8      47.3
     5     4  2021    15    2     449.0    434.0    0.49    132.3     247.1     148.3     116.6      76.0      71.7      49.4
     6     4  2021    16    2     448.6    433.6    0.51    138.1     257.5     154.5     121.5      79.1      74.7      51.5
     7     4  2021    17    2     448.2    433.2    0.53    143.7     267.5     160.5     126.6      82.5      77.8      53.5
     8     4  2021    18    2     447.5    432.5    0.55    148.8     277.2     166.3     132.4      86.3      81.4      55.4
     9     4  2021    19    2     447.5    432.5    0.57    154.5     286.6     172.0     141.1      92.1      86.8      57.3
    10     4  2021    20    2     447.9    432.9    0.59    160.4     295.8     177.5     138.3      90.0      85.0      59.2
    11     4  2021    21    2     447.0    432.0    0.61    164.9     304.8     182.9     151.8      99.1      93.4      61.0
    12     4  2021    22    2     446.6    431.6    0.63    169.7     313.6     188.2     147.9      96.4      90.9      62.7
    13     4  2021    23    2     446.1    431.1    0.64    174.4     322.2     193.3     153.4     100.0      94.3      64.4
    14     4  2021    24    2     445.6    430.6    0.66    179.0     330.6     198.4     156.9     102.3      96.5      66.1
    15     4  2021    25    2     445.5    430.5    0.68    183.8     338.9     203.3     159.9     104.2      98.3      67.8
    16     4  2021    26    2     444.8    429.8    0.69    188.0     347.0     208.2     166.3     108.4     102.2      69.4
    17     4  2021    27    2     444.2    429.2    0.71    192.2     355.0     213.0     169.6     110.5     104.3      71.0
    18     4  2021    28    2     450.2    435.2    0.73    202.9     362.9     217.8     171.2     111.6     105.2      72.6
    19     4  2021    29    2     451.4    436.4    0.74    208.8     370.7     222.4     176.0     114.7     108.2      74.1
    20     4  2021    30    2     449.0    434.0    0.76    211.0     378.3     227.0     183.5     119.7     112.8      75.7
    21     4  2021    31    2     447.2    432.2    0.77    213.7     385.9     231.5     192.2     125.5     118.2      77.2
    22     4  2021    32    2     446.2    431.2    0.79    217.2     393.3     236.0     193.6     126.3     119.1      78.7
    23     4  2021    33    2     445.1    430.1    0.80    220.5     400.7     240.4     197.8     129.1     121.7      80.1
    24     4  2021    34    2     444.4    429.4    0.82    224.1     407.9     244.7     198.4     129.4     122.0      81.6
    25     4  2021    35    2     444.0    429.0    0.83    228.0     415.1     249.1     200.1     130.5     123.0      83.0
    26     4  2021    36    2     443.6    428.6    0.84    231.9     422.2     253.3     204.1     133.1     125.5      84.4
    27     4  2021    37    2     443.1    428.1    0.86    235.6     429.2     257.5     211.9     138.3     130.3      85.8
    28     4  2021    38    2     441.9    426.9    0.87    238.6     436.1     261.7     220.4     144.0     135.6      87.2
    29     4  2021    39    2     442.9    427.9    0.89    243.6     443.0     265.8     218.0     142.3     134.1      88.6
    30     4  2021    40    2     440.8    425.8    0.90    245.7     449.8     269.9     214.8     140.0     132.1      90.0
     1     5  2021    41    2     439.1    424.1    0.91    248.0     456.5     273.9     221.4     144.4     136.1      91.3
     2     5  2021    42    2     442.9    427.9    0.93    255.8     463.2     277.9     217.8     141.9     133.9      92.6
     3     5  2021    43    2     440.5    425.5    0.94    257.3     469.8     281.9     228.5     149.0     140.5      94.0
     4     5  2021    44    2     438.8    423.8    0.95    259.6     476.3     285.8     238.6     155.8     146.8      95.3
     5     5  2021    45    2     437.5    422.5    0.97    262.2     482.8     289.7     237.6     155.1     146.2      96.6
     6     5  2021    46    2     437.0    422.0    0.98    265.5     489.2     293.5     236.5     154.2     145.4      97.8
     7     5  2021    47    2     440.5    425.5    0.99    272.9     495.6     297.4     234.5     152.8     144.2      99.1
     8     5  2021    48    2     437.7    422.7    1.00    273.9     501.9     301.2     249.3     162.7     153.3     100.4
     9     5  2021    49    2     431.8    416.8    1.02    271.7     508.2     304.9     273.9     179.3     168.6     101.6
    10     5  2021    50    2     427.6    412.6    1.03    271.2     514.4     308.7     279.5     183.0     172.1     102.9
    11     5  2021    51    2     424.2    409.2    1.04    271.5     520.6     312.4     273.0     178.6     168.0     104.1
    12     5  2021    52    2     432.7    417.7    1.05    283.8     526.7     316.0     247.7     161.4     152.3     105.3
    13     5  2021    53    2     438.5    423.5    1.07    293.2     532.8     319.7     245.9     160.1     151.1     106.6
    14     5  2021    54    2     436.9    421.9    1.08    295.2     538.9     323.3     261.3     170.4     160.7     107.8
    15     5  2021    55    2     434.2    419.2    1.09    296.1     544.9     326.9     273.0     178.3     167.9     109.0
    16     5  2021    56    2     431.6    416.6    1.10    297.1     550.9     330.5     273.6     178.6     168.3     110.2
    17     5  2021    57    2     429.1    414.1    1.11    298.1     556.8     334.1     276.5     180.5     170.1     111.4
    18     5  2021    58    2     426.9    411.9    1.13    299.5     562.7     337.6     275.3     179.6     169.3     112.5
    19     5  2021    59    2     424.1    409.1    1.14    300.2     568.5     341.1     285.7     186.5     175.7     113.7
    20     5  2021    60    2     421.1    406.1    1.15    300.7     574.3     344.6     287.7     187.9     177.0     114.9
    21     5  2021    61    2     416.7    401.7    1.16    299.8     580.1     348.1     304.2     199.0     187.2     116.0
    22     5  2021    62    2     413.3    398.3    1.17    299.8     585.8     351.5     296.9     194.0     182.7     117.2
    23     5  2021    63    2     410.5    395.5    1.18    300.4     591.6     354.9     293.8     191.8     180.7     118.3
    24     5  2021    64    2     406.6    391.6    1.19    299.9     597.2     358.3     307.9     201.3     189.5     119.4
    25     5  2021    65    2     404.9    389.9    1.21    301.6     602.9     361.7     298.5     194.8     183.6     120.6
    26     5  2021    66    2     405.5    390.5    1.22    305.6     608.5     365.1     295.9     193.0     182.0     121.7
    27     5  2021    67    2     409.1    394.1    1.23    312.5     614.1     368.4     298.7     194.8     183.7     122.8
    28     5  2021    68    2     406.7    391.7    1.24    313.5     619.6     371.8     303.2     197.8     186.4     123.9
    29     5  2021    69    2     404.1    389.1    1.25    314.2     625.1     375.1     308.6     201.4     189.8     125.0
    30     5  2021    70    2     400.4    385.4    1.26    313.7     630.6     378.4     322.4     210.7     198.4     126.1
    31     5  2021    71    2     396.5    381.5    1.27    313.1     636.1     381.6     326.1     213.1     200.7     127.2
     1     6  2021    72    2     391.5    376.5    1.28    311.4     641.5     384.9     336.4     220.0     207.0     128.3
     2     6  2021    73    2     387.2    372.2    1.29    310.3     646.9     388.1     335.4     219.3     206.4     129.4
     3     6  2021    74    2     381.1    366.1    1.30    307.5     652.3     391.4     351.6     230.2     216.4     130.5
     4     6  2021    75    2     376.7    361.7    1.32    306.3     657.6     394.6     338.1     221.0     208.1     131.5
     5     6  2021    76    2     371.2    356.2    1.33    304.0     663.0     397.8     351.5     230.0     216.4     132.6
     6     6  2021    77    2     365.8    350.8    1.34    301.7     668.3     401.0     353.4     231.2     217.5     133.7
     7     6  2021    78    2     360.2    345.2    1.35    299.3     673.5     404.1     357.1     233.7     219.8     134.7
     8     6  2021    79    2     354.8    339.8    1.36    297.1     678.8     407.3     357.9     234.1     220.3     135.8
     9     6  2021    80    2     349.6    334.6    1.37    295.0     684.0     410.4     358.7     234.6     220.8     136.8
    10     6  2021    81    2     344.1    329.1    1.38    292.7     689.2     413.5     363.4     237.7     223.7     137.8
    11     6  2021    82    2     338.5    323.5    1.39    290.2     694.4     416.7     367.2     240.2     226.0     138.9
    12     6  2021    83    2     336.1    321.1    1.40    290.8     699.6     419.7     358.7     234.4     220.7     139.9
    13     6  2021    84    2     331.4    316.4    1.41    289.2     704.7     422.8     360.3     235.4     221.7     140.9
    14     6  2021    85    2     325.4    310.4    1.42    286.3     709.8     425.9     374.3     244.9     230.4     142.0
    15     6  2021    86    2     320.2    305.2    1.43    284.1     714.9     429.0     369.7     241.7     227.5     143.0
    16     6  2021    87    2     313.4    298.4    1.44    280.4     720.0     432.0     387.0     253.3     238.3     144.0
    17     6  2021    88    2     305.0    290.0    1.45    275.0     725.0     435.0     409.9     268.7     252.4     145.0
    18     6  2021    89    2     296.3    281.3    1.46    269.4     730.1     438.0     418.1     274.2     257.5     146.0
    19     6  2021    90    2     288.8    273.8    1.47    264.8     735.1     441.1     409.1     268.1     251.9     147.0
    20     6  2021    91    2     281.5    266.5    1.48    260.5     740.1     444.0     408.6     267.7     251.6     148.0
    21     6  2021    92    2     274.9    259.9    1.49    256.9     745.0     447.0     404.9     265.1     249.3     149.0
    22     6  2021    93    2     271.3    256.3    1.50    256.3     750.0     450.0     374.6     244.6     230.5     150.0
    23     6  2021    94    2     268.2    253.2    1.50    253.2     750.0     450.0     377.9     246.8     232.5     150.0
    24     6  2021    95    2     266.6    251.6    1.50    251.6     750.0     450.0     372.5     243.1     229.1     150.0
    25     6  2021    96    2     262.2    247.2    1.50    247.2     750.0     450.0     380.1     248.3     233.9     150.0
    26     6  2021    97    2     256.9    241.9    1.50    241.9     750.0     450.0     393.3     257.2     242.0     150.0
    27     6  2021    98    2     251.7    236.7    1.50    236.7     750.0     450.0     397.7     260.2     244.8     150.0
    28     6  2021    99    2     246.2    231.2    1.50    231.2     750.0     450.0     409.7     268.3     276.0     150.0
    29     6  2021   100    2     255.9    240.9    1.50    240.9     750.0     450.0     392.2     256.5     266.4     150.0
    30     6  2021   101    2     278.1    263.1    1.50    263.1     750.0     450.0     359.3     234.2     220.9     150.0
     1     7  2021   102    2     280.5    265.5    1.50    265.5     750.0     450.0     357.1     232.7     219.5     150.0
     2     7  2021   103    2     275.8    260.8    1.50    260.8     750.0     450.0     382.3     249.8     235.2     150.0
     3     7  2021   104    2     270.8    255.8    1.50    255.8     750.0     450.0     385.6     252.0     237.3     150.0
     4     7  2021   105    2     265.2    250.2    1.50    250.2     750.0     450.0     392.2     256.5     241.4     150.0
     5     7  2021   106    2     261.6    246.6    1.50    246.6     750.0     450.0     384.5     251.3     236.6     150.0
     6     7  2021   107    2     266.1    251.1    1.50    251.1     750.0     450.0     398.8     260.9     245.5     150.0
     7     7  2021   108    2     266.1    251.1    1.50    251.1     750.0     450.0     368.1     240.2     226.4     150.0
     8     7  2021   109    2     278.1    263.1    1.50    263.1     750.0     450.0     368.1     240.2     226.4     150.0
     9     7  2021   110    2     302.1    287.1    1.50    287.1     750.0     450.0     368.1     240.2     226.4     150.0
    10     7  2021   111    2     297.4    282.4    1.50    282.4     750.0     450.0     382.3     249.8     235.2     150.0
    11     7  2021   112    2     291.6    276.6    1.50    276.6     750.0     450.0     394.4     258.0     242.7     150.0
    12     7  2021   113    2     287.1    272.1    1.50    272.1     750.0     450.0     380.1     248.3     233.9     150.0
    13     7  2021   114    2     290.9    275.9    1.50    275.9     750.0     450.0     397.7     260.2     244.8     150.0
    14     7  2021   115    2     286.9    271.9    1.50    271.9     750.0     450.0     375.7     245.4     231.1     150.0
    15     7  2021   116    2     282.2    267.2    1.50    267.2     750.0     450.0     382.3     249.8     235.2     150.0
    16     7  2021   117    2     282.9    267.9    1.50    267.9     750.0     450.0     386.7     252.8     238.0     150.0
    17     7  2021   118    2     278.2    263.2    1.50    263.2     750.0     450.0     382.3     249.8     235.2     150.0
    18     7  2021   119    2     273.0    258.0    1.50    258.0     750.0     450.0     387.8     253.5     238.6     150.0
    19     7  2021   120    2     269.0    254.0    1.50    254.0     750.0     450.0     375.7     245.4     231.1     150.0
    20     7  2021   121    2     265.2    250.2    1.50    250.2     750.0     450.0     373.6     243.9     229.8     150.0
    21     7  2021   122    2     261.4    246.4    1.50    246.4     750.0     450.0     373.6     243.9     229.8     150.0
    22     7  2021   123    2     257.7    242.7    1.50    242.7     750.0     450.0     372.5     243.1     229.1     150.0
    23     7  2021   124    2     253.5    238.5    1.50    238.5     750.0     450.0     379.0     247.6     233.2     150.0
    24     7  2021   125    2     248.4    233.4    1.50    233.4     750.0     450.0     399.9     261.7     246.1     150.0
    25     7  2021   126    2     250.3    235.3    1.50    235.3     750.0     450.0     392.2     256.5     266.4     150.0
    26     7  2021   127    2     246.2    231.2    1.50    231.2     750.0     450.0     386.7     252.8     263.4     150.0
    27     7  2021   128    3     242.3    227.3    1.50    227.3     750.0     450.0     387.8     253.5     264.0     150.0
    28     7  2021   129    3     239.1    224.1    1.50    224.1     750.0     450.0     379.0     247.6     259.2     150.0
    29     7  2021   130    3     235.2    220.2    1.50    220.2     750.0     450.0     394.4     258.0     267.6     150.0
    30     7  2021   131    3     231.7    216.7    1.50    216.7     750.0     450.0     392.2     256.5     266.4     150.0
    31     7  2021   132    3     228.2    213.2    1.50    213.2     750.0     450.0     396.6     259.4     268.8     150.0
     1     8  2021   133    3     226.4    211.4    1.50    211.4     750.0     450.0     374.6     244.6     256.8     150.0
     2     8  2021   134    3     223.8    208.8    1.50    208.8     750.0     450.0     380.1     248.3     259.8     150.0
     3     8  2021   135    3     224.5    209.5    1.50    209.5     750.0     450.0     374.6     244.6     256.8     150.0
     4     8  2021   136    3     222.2    207.2    1.50    207.2     750.0     450.0     370.3     241.6     254.4     150.0
     5     8  2021   137    3     224.2    209.2    1.50    209.2     750.0     450.0     372.5     243.1     255.6     150.0
     6     8  2021   138    3     222.5    207.5    1.50    207.5     750.0     450.0     376.8     246.1     258.0     150.0
     7     8  2021   139    3     220.0    205.0    1.50    205.0     750.0     450.0     377.9     246.8     258.6     150.0
     8     8  2021   140    3     217.3    202.3    1.50    202.3     750.0     450.0     385.6     252.0     262.8     150.0
     9     8  2021   141    3     215.9    200.9    1.50    200.9     750.0     450.0     382.3     249.8     261.0     150.0
    10     8  2021   142    3     214.4    199.4    1.50    199.4     750.0     450.0     374.6     244.6     256.8     150.0
    11     8  2021   143    4     212.3    197.3    1.50    197.3     750.0     450.0     375.7     245.4     257.4     150.0
    12     8  2021   144    4     210.2    195.2    1.50    195.2     750.0     450.0     383.4     250.5     261.6     150.0
    13     8  2021   145    4     208.9    193.9    1.50    193.9     750.0     450.0     388.9     254.3     264.6     150.0
    14     8  2021   146    4     206.7    191.7    1.50    191.7     750.0     450.0     387.8     253.5     264.0     150.0
    15     8  2021   147    4     204.7    189.7    1.50    189.7     750.0     450.0     382.3     249.8     261.0     150.0
    16     8  2021   148    4     203.3    188.3    1.50    188.3     750.0     450.0     385.6     252.0     262.8     150.0
    17     8  2021   149    4     201.8    186.8    1.50    186.8     750.0     450.0     374.6     244.6     256.8     150.0
    18     8  2021   150    4     200.5    185.5    1.50    185.5     750.0     450.0     377.9     246.8     258.6     150.0
    19     8  2021   151    4     199.4    184.4    1.50    184.4     750.0     450.0     371.4     242.4     255.0     150.0
    20     8  2021   152    4     198.4    183.4    1.50    183.4     750.0     450.0     372.5     243.1     255.6     150.0
    21     8  2021   153    4     197.4    182.4    1.50    182.4     750.0     450.0     371.4     242.4     255.0     150.0
    22     8  2021   154    4     260.8    245.8    1.50    245.8     750.0     450.0     364.8     237.9     251.4     150.0
    23     8  2021   155    4     273.9    258.9    1.50    258.9     750.0     450.0     350.5     228.3     215.5     150.0
    24     8  2021   156    4     270.9    255.9    1.50    255.9     750.0     450.0     370.3     241.6     227.7     150.0
    25     8  2021   157    4     272.8    257.8    1.50    257.8     750.0     450.0     371.4     242.4     228.4     150.0
    26     8  2021   158    4     277.6    262.6    1.50    262.6     750.0     450.0     356.0     232.0     218.9     150.0
    27     8  2021   159    4     287.9    272.9    1.50    272.9     750.0     450.0     353.8     230.5     217.5     150.0
    28     8  2021   160    4     286.1    271.1    1.50    271.1     750.0     450.0     358.2     233.5     220.2     150.0
    29     8  2021   161    4     297.6    282.6    1.50    282.6     750.0     450.0     354.9     231.3     218.2     150.0
    30     8  2021   162    4     311.0    296.0    1.50    296.0     750.0     450.0     353.8     230.5     217.5     150.0
    31     8  2021   163    4     309.8    294.8    1.50    294.8     750.0     450.0     361.5     235.7     222.3     150.0
     1     9  2021   164    4     307.7    292.7    1.50    292.7     750.0     450.0     360.4     235.0     221.6     150.0
     2     9  2021   165    4     305.3    290.3    1.50    290.3     750.0     450.0     364.8     237.9     224.3     150.0
     3     9  2021   166    4     302.7    287.7    1.50    287.7     750.0     450.0     369.2     240.9     227.0     150.0
     4     9  2021   167    4     301.0    286.0    1.50    286.0     750.0     450.0     358.2     233.5     220.2     150.0
     5     9  2021   168    4     298.7    283.7    1.50    283.7     750.0     450.0     367.0     239.4     225.7     150.0
     6     9  2021   169    4     296.5    281.5    1.50    281.5     750.0     450.0     365.9     238.7     225.0     150.0
     7     9  2021   170    4     294.7    279.7    1.50    279.7     750.0     450.0     362.6     236.5     223.0     150.0
     8     9  2021   171    4     292.4    277.4    1.50    277.4     750.0     450.0     369.2     240.9     227.0     150.0
     9     9  2021   172    4     289.8    274.8    1.50    274.8     750.0     450.0     376.8     246.1     231.8     150.0
    10     9  2021   173    4     287.7    272.7    1.50    272.7     750.0     450.0     368.1     240.2     226.4     150.0
    11     9  2021   174    4     299.0    284.0    1.50    284.0     750.0     450.0     357.1     232.7     219.5     150.0
    12     9  2021   175    4     298.0    283.0    1.50    283.0     750.0     450.0     358.2     233.5     220.2     150.0
    13     9  2021   176    4     296.3    281.3    1.50    281.3     750.0     450.0     358.2     233.5     220.2     150.0
    14     9  2021   177    4     294.5    279.5    1.50    279.5     750.0     450.0     362.6     236.5     223.0     150.0
    15     9  2021   178    4     298.0    283.0    1.50    283.0     750.0     450.0     361.5     235.7     222.3     150.0
    16     9  2021   179    4     296.3    281.3    1.50    281.3     750.0     450.0     359.3     234.2     220.9     150.0
    17     9  2021   180    4     296.1    281.1    1.50    281.1     750.0     450.0     354.9     231.3     218.2     150.0
    18     9  2021   181    4     296.1    281.1    1.50    281.1     750.0     450.0     351.6     229.0     216.1     150.0
    19     9  2021   182    4     295.0    280.0    1.50    280.0     750.0     450.0     351.6     229.0     216.1     150.0
    20     9  2021   183    4     294.1    279.1    1.50    279.1     750.0     450.0     349.4     227.6     214.8     150.0
    21     9  2021   184    4     293.4    278.4    1.50    278.4     750.0     450.0     353.8     230.5     217.5     150.0
    22     9  2021   185    4     292.5    277.5    1.50    277.5     750.0     450.0     354.9     231.3     218.2     150.0
    23     9  2021   186    4     291.2    276.2    1.50    276.2     750.0     450.0     367.0     239.4     225.7     150.0
    24     9  2021   187    4     290.1    275.1    1.50    275.1     750.0     450.0     362.6     236.5     223.0     150.0
    25     9  2021   188    4     289.4    274.4    1.50    274.4     750.0     450.0     356.0     232.0     218.9     150.0
    26     9  2021   189    4     288.6    273.6    1.50    273.6     750.0     450.0     361.5     235.7     222.3     150.0
    27     9  2021   190    4     288.1    273.1    1.50    273.1     750.0     450.0     350.5     228.3     215.5     150.0
    28     9  2021   191    4     289.9    274.9    1.50    274.9     750.0     450.0     348.3     226.8     214.1     150.0
    29     9  2021   192    4     292.7    277.7    1.50    277.7     750.0     450.0     349.4     227.6     214.8     150.0
    30     9  2021   193    4     291.6    276.6    1.50    276.6     750.0     450.0     358.2     233.5     220.2     150.0
     1    10  2021   194    4     290.5    275.5    1.50    275.5     750.0     450.0     360.4     235.0     221.6     150.0
     2    10  2021   195    4     289.3    274.3    1.50    274.3     750.0     450.0     359.3     234.2     220.9     150.0
     3    10  2021   196    4     288.8    273.8    1.50    273.8     750.0     450.0     376.8     246.1     231.8     150.0
     4    10  2021   197    4     290.5    275.5    1.50    275.5     750.0     450.0     348.3     226.8     214.1     150.0

** Run number:  3   -- Water content in soil profile (WCTot layer: 0.00 - 1.55 m) and root zone (Wr with Zx = 1.50 m)
   Day Month  Year   DAP Stage     WCTot   Wr(Zx)      Z       Wr    Wr(SAT)    Wr(FC)   Wr(exp)   Wr(sto)   Wr(sen)   Wr(PWP)
                                     mm       mm       m       mm        mm        mm        mm        mm        mm        mm
    22     3  2022     1    1     461.8    446.8    0.30     86.8     150.0      90.0      78.0      48.6      48.0      30.0
    23     3  2022     2    1     459.9    444.9    0.30     84.9     150.0      90.0      78.0      47.6      48.0      30.0
    24     3  2022     3    1     458.7    443.7    0.30     83.7     150.0      90.0      78.0      46.7      48.0      30.0
    25     3  2022     4    1     457.5    442.5    0.30     82.5     150.0      90.0      78.0      46.8      48.0      30.0
    26     3  2022     5    1     456.4    441.4    0.30     81.4     150.0      90.0      78.0      47.3      48.0      30.0
    27     3  2022     6    1     455.6    440.6    0.30     80.6     150.0      90.0      78.0      46.6      48.0      30.0
    28     3  2022     7    1     454.5    439.5    0.30     79.5     150.0      90.0      78.0      48.0      48.0      30.0
    29     3  2022     8    1     453.8    438.8    0.31     83.1     157.1      94.3      81.7      48.9      50.3      31.4
    30     3  2022     9    1     453.3    438.3    0.35     92.3     173.3     104.0      90.1      53.1      55.5      34.7
    31     3  2022    10    1     452.8    437.8    0.38    100.4     187.8     112.7      97.6      57.9      60.1      37.6
     1     4  2022    11    1     452.0    437.0    0.40    107.6     201.1     120.6     104.5      63.8      64.3      40.2
     2     4  2022    12    1     451.5    436.5    0.43    114.6     213.5     128.1     111.0      66.2      68.3      42.7
     3     4  2022    13    1     451.0    436.0    0.45    121.1     225.2     135.1     117.1      70.1      72.1      45.0
     4     4  2022    14    2     460.7    445.7    0.47    137.5     236.4     141.8     112.6      73.4      69.2      47.3
     5     4  2022    15    2     467.3    452.3    0.49    150.5     247.1     148.3     115.9      75.5      71.2      49.4
     6     4  2022    16    2     464.9    449.9    0.51    154.1     257.5     154.5     123.0      80.2      75.6      51.5
     7     4  2022    17    2     467.9    452.8    0.53    163.0     267.5     160.5     130.9      85.4      80.5      53.5
     8     4  2022    18    2     466.0    451.0    0.55    166.8     277.2     166.3     132.8      86.6      81.6      55.4
     9     4  2022    19    2     463.2    448.2    0.57    169.8     286.6     172.0     138.1      90.1      84.9      57.3
    10     4  2022    20    2     461.8    446.8    0.59    174.1     295.8     177.5     140.9      91.8      86.6      59.2
    11     4  2022    21    2     459.4    444.4    0.61    177.3     304.8     182.9     147.8      96.4      90.9      61.0
    12     4  2022    22    2     456.9    441.9    0.63    180.0     313.6     188.2     156.6     102.3      96.4      62.7
    13     4  2022    23    2     454.3    439.3    0.64    182.6     322.2     193.3     163.8     107.0     100.8      64.4
    14     4  2022    24    2     454.9    439.9    0.66    188.2     330.6     198.4     160.8     104.9      98.9      66.1
    15     4  2022    25    2     454.8    439.8    0.68    193.1     338.9     203.3     158.4     103.2      97.4      67.8
    16     4  2022    26    2     452.9    437.9    0.69    196.1     347.0     208.2     168.3     109.8     103.5      69.4
    17     4  2022    27    2     451.3    436.3    0.71    199.3     355.0     213.0     173.2     113.0     106.5      71.0
    18     4  2022    28    2     449.8    434.8    0.73    202.6     362.9     217.8     177.0     115.5     108.9      72.6
    19     4  2022    29    2     448.6    433.6    0.74    206.0     370.7     222.4     180.3     117.6     110.9      74.1
    20     4  2022    30    2     448.3    433.3    0.76    210.3     378.3     227.0     180.7     117.8     111.1      75.7
    21     4  2022    31    2     447.8    432.8    0.77    214.4     385.9     231.5     181.5     118.2     111.6      77.2
    22     4  2022    32    2     446.8    431.8    0.79    217.8     393.3     236.0     188.4     122.8     115.8      78.7
    23     4  2022    33    2     445.3    430.3    0.80    220.7     400.7     240.4     199.6     130.3     122.7      80.1
    24     4  2022    34    2     444.0    429.0    0.82    223.7     407.9     244.7     202.0     131.8     124.2      81.6
    25     4  2022    35    2     443.1    428.1    0.83    227.2     415.1     249.1     200.7     130.9     123.4      83.0
    26     4  2022    36    2     442.1    427.1    0.84    230.4     422.2     253.3     207.2     135.2     127.4      84.4
    27     4  2022    37    2     440.7    425.7    0.86    233.2     429.2     257.5     213.1     139.1     131.1      85.8
    28     4  2022    38    2     439.5    424.5    0.87    236.1     436.1     261.7     215.3     140.5     132.4      87.2
    29     4  2022    39    2     438.1    423.1    0.89    238.9     443.0     265.8     220.6     144.0     135.7      88.6
    30     4  2022    40    2     436.5    421.5    0.90    241.3     449.8     269.9     224.7     146.7     138.2      90.0
     1     5  2022    41    2     435.0    420.0    0.91    243.9     456.5     273.9     228.0     148.9     140.3      91.3
     2     5  2022    42    2     433.3    418.3    0.93    246.1     463.2     277.9     231.4     151.1     142.3      92.6
     3     5  2022    43    2     431.6    416.6    0.94    248.4     469.8     281.9     234.7     153.2     144.3      94.0
     4     5  2022    44    2     429.8    414.8    0.95    250.5     476.3     285.8     237.9     155.4     146.4      95.3
     5     5  2022    45    2     427.9    412.9    0.97    252.6     482.8     289.7     241.9     157.9     148.8      96.6
     6     5  2022    46    2     426.1    411.1    0.98    254.6     489.2     293.5     245.1     160.0     150.8      97.8
     7     5  2022    47    2     423.8    408.8    0.99    256.1     495.6     297.4     251.9     164.6     155.0      99.1
     8     5  2022    48    2     421.5    406.5    1.00    257.6     501.9     301.2     254.4     166.2     156.5     100.4
     9     5  2022    49    2     419.0    404.0    1.02    259.0     508.2     304.9     259.8     169.8     159.9     101.6
    10     5  2022    50    2     415.5    400.5    1.03    259.2     514.4     308.7     272.8     178.5     167.9     102.9
    11     5  2022    51    2     411.3    396.3    1.04    258.6     520.6     312.4     282.9     185.2     174.2     104.1
    12     5  2022    52    2     408.1    393.1    1.05    259.2     526.7     316.0     271.6     177.5     167.1     105.3
    13     5  2022    53    2     405.2    390.2    1.07    259.9     532.8     319.7     272.4     178.0     167.6     106.6
    14     5  2022    54    2     401.9    386.9    1.08    260.2     538.9     323.3     277.9     181.6     171.0     107.8
    15     5  2022    55    2     398.8    383.8    1.09    260.7     544.9     326.9     278.6     182.0     171.4     109.0
    16     5  2022    56    2     400.8    385.8    1.10    266.3     550.9     330.5     292.1     191.1     179.8     110.2
    17     5  2022    57    2     398.3    383.3    1.11    267.3     556.8     334.1     275.7     179.9     169.6     111.4
    18     5  2022    58    2     394.1    379.1    1.13    266.7     562.7     337.6     295.1     193.0     181.6     112.5
    19     5  2022    59    2     389.2    374.2    1.14    265.3     568.5     341.1     304.8     199.5     187.6     113.7
    20     5  2022    60    2     403.4    388.4    1.15    282.9     574.3     344.6     295.3     193.0     181.7     114.9
    21     5  2022    61    2     399.4    384.4    1.16    282.5     580.1     348.1     296.6     193.8     182.5     116.0
    22     5  2022    62    2     396.0    381.0    1.17    282.5     585.8     351.5     296.1     193.4     182.1     117.2
    23     5  2022    63    2     391.5    376.5    1.18    281.5     591.6     354.9     308.5     201.7     189.8     118.3
    24     5  2022    64    2     388.9    373.9    1.19    282.2     597.2     358.3     305.3     199.5     187.9     119.4
    25     5  2022    65    2     384.6    369.6    1.21    281.3     602.9     361.7     304.7     199.0     187.4     120.6
    26     5  2022    66    2     383.4    368.4    1.22    283.5     608.5     365.1     314.6     205.7     193.6     121.7
    27     5  2022    67    2     380.3    365.3    1.23    283.8     614.1     368.4     311.2     203.3     191.5     122.8
    28     5  2022    68    2     378.4    363.4    1.24    285.2     619.6     371.8     306.8     200.2     188.7     123.9
    29     5  2022    69    2     375.3    360.3    1.25    285.4     625.1     375.1     307.7     200.8     189.2     125.0
    30     5  2022    70    2     372.3    357.3    1.26    285.7     630.6     378.4     313.2     204.4     192.6     126.1
    31     5  2022    71    2     375.6    360.6    1.27    292.3     636.1     381.6     324.2     211.9     199.5     127.2
     1     6  2022    72    2     373.7    358.7    1.28    293.6     641.5     384.9     321.4     209.9     197.7     128.3
     2     6  2022    73    2     369.2    354.2    1.29    292.4     646.9     388.1     328.8     214.8     202.3     129.4
     3     6  2022    74    2     363.3    348.3    1.30    289.6     652.3     391.4     344.0     225.0     211.7     130.5
     4     6  2022    75    2     359.1    344.1    1.32    288.7     657.6     394.6     334.3     218.4     205.7     131.5
     5     6  2022    76    2     354.1    339.1    1.33    286.9     663.0     397.8     357.3     233.9     220.0     132.6
     6     6  2022    77    2     348.5    333.5    1.34    284.5     668.3     401.0     348.5     227.9     214.5     133.7
     7     6  2022    78    2     343.8    328.8    1.35    282.9     673.5     404.1     345.3     225.7     212.5     134.7
     8     6  2022    79    2     338.6    323.6    1.36    280.9     678.8     407.3     356.0     232.8     219.1     135.8
     9     6  2022    80    2     335.4    320.4    1.37    280.8     684.0     410.4     341.7     223.1     210.2     136.8
    10     6  2022    81    2     329.6    314.6    1.38    278.2     689.2     413.5     363.4     237.7     223.7     137.8
    11     6  2022    82    2     324.0    309.0    1.39    275.6     694.4     416.7     368.2     240.9     226.6     138.9
    12     6  2022    83    2     318.5    303.5    1.40    273.3     699.6     419.7     368.9     241.3     227.0     139.9
    13     6  2022    84    2     313.4    298.4    1.41    271.3     704.7     422.8     367.5     240.3     226.1     140.9
    14     6  2022    85    2     308.6    293.6    1.42    269.5     709.8     425.9     367.0     239.9     225.9     142.0
    15     6  2022    86    2     302.9    287.9    1.43    266.9     714.9     429.0     379.1     248.0     233.3     143.0
    16     6  2022    87    2     297.5    282.5    1.44    264.5     720.0     432.0     378.6     247.6     233.0     144.0
    17     6  2022    88    2     291.5    276.5    1.45    261.5     725.0     435.0     387.6     253.7     238.6     145.0
    18     6  2022    89    2     283.6    268.6    1.46    256.7     730.1     438.0     415.9     272.8     256.2     146.0
    19     6  2022    90    2     288.0    273.0    1.47    264.0     735.1     441.0     431.7     283.4     266.0     147.0
    20     6  2022    91    2     300.4    285.4    1.48    279.5     740.1     444.0     355.6     231.9     218.7     148.0
    21     6  2022    92    2     294.9    279.9    1.49    276.9     745.0     447.0     388.5     254.1     239.1     149.0
    22     6  2022    93    2     288.6    273.6    1.50    273.6     750.0     450.0     398.8     260.9     245.5     150.0
    23     6  2022    94    2     281.4    266.4    1.50    266.4     750.0     450.0     407.5     266.9     250.9     150.0
    24     6  2022    95    2     274.1    259.1    1.50    259.1     750.0     450.0     410.8     269.1     253.0     150.0
    25     6  2022    96    2     269.1    254.1    1.50    254.1     750.0     450.0     385.6     252.0     237.3     150.0
    26     6  2022    97    2     263.3    248.3    1.50    248.3     750.0     450.0     396.6     259.4     244.1     150.0
    27     6  2022    98    2     259.5    244.5    1.50    244.5     750.0     450.0     416.3     272.8     256.4     150.0
    28     6  2022    99    2     254.7    239.7    1.50    239.7     750.0     450.0     388.9     254.3     264.6     150.0
    29     6  2022   100    2     251.2    236.2    1.50    236.2     750.0     450.0     376.8     246.1     258.0     150.0
    30     6  2022   101    2     247.1    232.1    1.50    232.1     750.0     450.0     386.7     252.8     263.4     150.0
     1     7  2022   102    2     249.9    234.9    1.50    234.9     750.0     450.0     386.7     252.8     263.4     150.0
     2     7  2022   103    2     245.4    230.4    1.50    230.4     750.0     450.0     390.0     255.0     265.2     150.0
     3     7  2022   104    2     240.6    225.6    1.50    225.6     750.0     450.0     403.2     263.9     272.4     150.0
     4     7  2022   105    2     236.5    221.5    1.50    221.5     750.0     450.0     392.2     256.5     266.4     150.0
     5     7  2022   106    2     232.6    217.6    1.50    217.6     750.0     450.0     391.1     255.7     265.8     150.0
     6     7  2022   107    2     231.1    216.1    1.50    216.1     750.0     450.0     384.5     251.3     262.2     150.0
     7     7  2022   108    2     234.0    219.0    1.50    219.0     750.0     450.0     369.2     240.9     253.8     150.0
     8     7  2022   109    2     231.1    216.1    1.50    216.1     750.0     450.0     374.6     244.6     256.8     150.0
     9     7  2022   110    2     228.1    213.1    1.50    213.1     750.0     450.0     379.0     247.6     259.2     150.0
    10     7  2022   111    2     225.1    210.1    1.50    210.1     750.0     450.0     381.2     249.1     260.4     150.0
    11     7  2022   112    2     221.9    206.9    1.50    206.9     750.0     450.0     390.0     255.0     265.2     150.0
    12     7  2022   113    2     218.6    203.6    1.50    203.6     750.0     450.0     395.5     258.7     268.2     150.0
    13     7  2022   114    2     215.2    200.2    1.50    200.2     750.0     450.0     404.3     264.6     273.0     150.0
    14     7  2022   115    2     212.2    197.2    1.50    197.2     750.0     450.0     396.6     259.4     268.8     150.0
    15     7  2022   116    2     209.8    194.8    1.50    194.8     750.0     450.0     384.5     251.3     262.2     150.0
    16     7  2022   117    2     208.5    193.5    1.50    193.5     750.0     450.0     387.8     253.5     264.0     150.0
    17     7  2022   118    2     206.1    191.1    1.50    191.1     750.0     450.0     387.8     253.5     264.0     150.0
    18     7  2022   119    2     204.0    189.0    1.50    189.0     750.0     450.0     392.2     256.5     266.4     150.0
    19     7  2022   120    2     201.9    186.9    1.50    186.9     750.0     450.0     415.2     272.1     279.0     150.0
    20     7  2022   121    2     199.7    184.8    1.50    184.8     750.0     450.0     427.3     280.2     285.6     150.0
    21     7  2022   122    2     198.1    183.2    1.50    183.2     750.0     450.0     397.7     260.2     269.4     150.0
    22     7  2022   123    2     196.8    181.9    1.50    181.9     750.0     450.0     384.5     251.3     262.2     150.0
    23     7  2022   124    2     200.2    185.3    1.50    185.3     750.0     450.0     380.1     248.3     259.8     150.0
    24     7  2022   125    2     198.1    183.2    1.50    183.2     750.0     450.0     390.0     255.0     265.2     150.0
    25     7  2022   126    2     199.3    184.4    1.50    184.4     750.0     450.0     415.2     272.1     279.0     150.0
    26     7  2022   127    2     198.4    183.5    1.50    183.4     750.0     450.0     377.9     246.8     258.6     150.0
    27     7  2022   128    3     197.0    182.1    1.50    182.1     750.0     450.0     381.2     249.1     260.4     150.0
    28     7  2022   129    3     196.0    181.1    1.50    181.1     750.0     450.0     382.3     249.8     261.0     150.0
    29     7  2022   130    3     194.7    179.8    1.50    179.8     750.0     450.0     398.8     260.9     270.0     150.0
    30     7  2022   131    3     193.8    178.9    1.50    178.9     750.0     450.0     382.3     249.8     261.0     150.0
    31     7  2022   132    3     192.8    178.0    1.50    178.0     750.0     450.0     394.4     258.0     267.6     150.0
     1     8  2022   133    3     196.1    181.3    1.50    181.3     750.0     450.0     376.8     246.1     258.0     150.0
     2     8  2022   134    3     194.2    179.4    1.50    179.4     750.0     450.0     383.4     250.5     261.6     150.0
     3     8  2022   135    3     192.1    177.4    1.50    177.4     750.0     450.0     393.3     257.2     267.0     150.0
     4     8  2022   136    3     189.4    174.9    1.50    174.9     750.0     450.0     409.7     268.3     276.0     150.0
     5     8  2022   137    3     189.1    174.7    1.50    174.7     750.0     450.0     386.7     252.8     263.4     150.0
     6     8  2022   138    3     188.2    173.9    1.50    173.9     750.0     450.0     382.3     249.8     261.0     150.0
     7     8  2022   139    3     187.7    173.5    1.50    173.5     750.0     450.0     381.2     249.1     260.4     150.0
     8     8  2022   140    3     187.2    173.1    1.50    173.1     750.0     450.0     383.4     250.5     261.6     150.0
     9     8  2022   141    3     186.8    172.8    1.50    172.8     750.0     450.0     385.6     252.0     262.8     150.0
    10     8  2022   142    3     186.4    172.5    1.50    172.5     750.0     450.0     385.6     252.0     262.8     150.0
    11     8  2022   143    4     186.0    172.2    1.50    172.2     750.0     450.0     390.0     255.0     265.2     150.0
    12     8  2022   144    4     185.7    171.9    1.50    171.9     750.0     450.0     391.1     255.7     265.8     150.0
    13     8  2022   145    4     185.4    171.8    1.50    171.8     750.0     450.0     377.9     246.8     258.6     150.0
    14     8  2022   146    4     185.2    171.6    1.50    171.6     750.0     450.0     386.7     252.8     263.4     150.0
    15     8  2022   147    4     185.1    171.5    1.50    171.5     750.0     450.0     384.5     251.3     262.2     150.0
    16     8  2022   148    4     184.9    171.3    1.50    171.3     750.0     450.0     384.5     251.3     262.2     150.0
    17     8  2022   149    4     184.8    171.3    1.50    171.3     750.0     450.0     385.6     252.0     262.8     150.0
    18     8  2022   150    4     193.8    180.2    1.50    180.2     750.0     450.0     395.5     258.7     268.2     150.0
    19     8  2022   151    4     193.7    180.1    1.50    180.1     750.0     450.0     356.0     232.0     218.9     150.0
    20     8  2022   152    4     194.5    180.9    1.50    180.9     750.0     450.0     353.8     230.5     217.5     150.0
    21     8  2022   153    4     193.3    179.8    1.50    179.8     750.0     450.0     370.3     241.6     227.7     150.0
    22     8  2022   154    4     193.0    179.5    1.50    179.5     750.0     450.0     369.2     240.9     227.0     150.0
    23     8  2022   155    4     192.8    179.2    1.50    179.2     750.0     450.0     368.1     240.2     226.4     150.0
    24     8  2022   156    4     192.5    178.9    1.50    178.9     750.0     450.0     372.5     243.1     229.1     150.0
    25     8  2022   157    4     192.2    178.6    1.50    178.6     750.0     450.0     373.5     243.9     256.2     150.0
    26     8  2022   158    4     196.4    182.8    1.50    182.8     750.0     450.0     371.4     242.4     255.0     150.0
    27     8  2022   159    4     196.6    183.0    1.50    183.0     750.0     450.0     357.1     232.7     219.5     150.0
    28     8  2022   160    4     196.0    182.4    1.50    182.4     750.0     450.0     362.6     236.5     223.0     150.0
    29     8  2022   161    4     195.6    182.0    1.50    182.0     750.0     450.0     365.9     238.7     225.0     150.0
    30     8  2022   162    4     195.2    181.7    1.50    181.7     750.0     450.0     365.9     238.7     225.0     150.0
    31     8  2022   163    4     194.9    181.3    1.50    181.3     750.0     450.0     367.0     239.4     225.7     150.0
     1     9  2022   164    4     194.5    180.9    1.50    180.9     750.0     450.0     369.2     240.9     227.0     150.0
     2     9  2022   165    4     194.1    180.6    1.50    180.6     750.0     450.0     370.3     241.6     227.7     150.0
     3     9  2022   166    4     193.8    180.2    1.50    180.2     750.0     450.0     375.7     245.4     231.1     150.0
     4     9  2022   167    4     193.4    179.8    1.50    179.8     750.0     450.0     373.5     243.9     229.8     150.0
     5     9  2022   168    4     193.1    179.5    1.50    179.5     750.0     450.0     374.6     244.6     230.5     150.0
     6     9  2022   169    4     192.8    179.2    1.50    179.2     750.0     450.0     376.8     246.1     231.8     150.0
     7     9  2022   170    4     192.6    179.0    1.50    179.0     750.0     450.0     372.5     243.1     229.1     150.0
     8     9  2022   171    4     204.0    190.4    1.50    190.4     750.0     450.0     352.7     229.8     216.8     150.0
     9     9  2022   172    4     203.3    189.7    1.50    189.7     750.0     450.0     364.8     237.9     224.3     150.0
    10     9  2022   173    4     202.6    189.0    1.50    189.0     750.0     450.0     360.4     235.0     221.6     150.0
    11     9  2022   174    4     202.1    188.5    1.50    188.5     750.0     450.0     356.0     232.0     218.9     150.0
    12     9  2022   175    4     201.6    188.0    1.50    188.0     750.0     450.0     357.1     232.7     219.5     150.0
    13     9  2022   176    4     201.6    188.0    1.50    188.0     750.0     450.0     356.0     232.0     218.9     150.0
    14     9  2022   177    4     201.5    187.9    1.50    187.9     750.0     450.0     353.8     230.5     217.5     150.0
    15     9  2022   178    4     201.4    187.8    1.50    187.8     750.0     450.0     358.2     233.5     220.2     150.0
    16     9  2022   179    4     202.6    189.0    1.50    189.0     750.0     450.0     363.7     237.2     223.6     150.0
    17     9  2022   180    4     206.6    193.1    1.50    193.1     750.0     450.0     358.2     233.5     220.2     150.0
    18     9  2022   181    4     209.2    195.7    1.50    195.6     750.0     450.0     353.8     230.5     217.5     150.0
    19     9  2022   182    4     219.5    205.9    1.50    205.9     750.0     450.0     352.7     229.8     216.8     150.0
    20     9  2022   183    4     219.1    205.5    1.50    205.5     750.0     450.0     351.6     229.0     216.1     150.0
    21     9  2022   184    4     218.2    204.7    1.50    204.7     750.0     450.0     352.7     229.8     216.8     150.0
    22     9  2022   185    4     217.5    203.9    1.50    203.9     750.0     450.0     351.6     229.0     216.1     150.0
    23     9  2022   186    4     216.7    203.2    1.50    203.2     750.0     450.0     353.8     230.5     217.5     150.0
    24     9  2022   187    4     216.0    202.5    1.50    202.5     750.0     450.0     353.8     230.5     217.5     150.0
    25     9  2022   188    4     215.4    201.8    1.50    201.8     750.0     450.0     351.6     229.0     216.1     150.0
    26     9  2022   189    4     214.4    200.8    1.50    200.8     750.0     450.0     357.1     232.7     219.5     150.0
    27     9  2022   190    4     217.5    203.9    1.50    203.9     750.0     450.0     350.5     228.3     215.5     150.0
    28     9  2022   191    4     218.1    204.5    1.50    204.5     750.0     450.0     345.0     224.6     212.0     150.0
    29     9  2022   192    4     217.3    203.7    1.50    203.7     750.0     450.0     348.3     226.8     214.1     150.0
    30     9  2022   193    4     216.5    202.9    1.50    202.9     750.0     450.0     350.5     228.3     215.5     150.0
     1    10  2022   194    4     217.6    204.1    1.50    204.1     750.0     450.0     348.3     226.8     214.1     150.0
     2    10  2022   195    4     221.5    207.9    1.50    207.9     750.0     450.0     351.6     229.0     216.1     150.0
     3    10  2022   196    4     221.9    208.3    1.50    208.3     750.0     450.0     350.5     228.3     215.5     150.0
     4    10  2022   197    4     221.0    207.5    1.50    207.5     750.0     450.0     350.5     228.3     215.5     150.0

** Run number:  4   -- Water content in soil profile (WCTot layer: 0.00 - 1.55 m) and root zone (Wr with Zx = 1.50 m)
   Day Month  Year   DAP Stage     WCTot   Wr(Zx)      Z       Wr    Wr(SAT)    Wr(FC)   Wr(exp)   Wr(sto)   Wr(sen)   Wr(PWP)
                                     mm       mm       m       mm        mm        mm        mm        mm        mm        mm
    22     3  2023     1    1     462.7    447.7    0.30     87.7     150.0      90.0      78.0      47.0      48.0      30.0
    23     3  2023     2    1     461.3    446.3    0.30     86.3     150.0      90.0      78.0      47.6      48.0      30.0
    24     3  2023     3    1     460.8    445.8    0.30     85.8     150.0      90.0      78.0      46.8      48.0      30.0
    25     3  2023     4    1     460.8    445.8    0.30     85.8     150.0      90.0      78.0      46.7      48.0      30.0
    26     3  2023     5    1     466.2    451.2    0.30     91.2     150.0      90.0      78.0      46.0      48.0      30.0
    27     3  2023     6    1     464.7    449.7    0.30     89.4     150.0      90.0      78.0      45.8      48.0      30.0
    28     3  2023     7    1     462.7    447.7    0.30     87.4     150.0      90.0      78.0      46.4      48.0      30.0
    29     3  2023     8    1     461.1    446.0    0.31     90.2     157.1      94.3      81.7      48.3      50.3      31.4
    30     3  2023     9    1     465.5    450.5    0.35    104.4     173.3     104.0      90.1      54.1      55.5      34.7
    31     3  2023    10    1     469.3    454.3    0.38    116.9     187.8     112.7      97.6      57.3      60.1      37.6
     1     4  2023    11    1     475.4    460.4    0.40    130.3     201.1     120.6     104.5      61.2      64.3      40.2
     2     4  2023    12    1     471.2    456.2    0.43    132.3     213.5     128.1     111.0      65.4      68.3      42.7
     3     4  2023    13    1     466.7    451.7    0.45    135.1     225.2     135.1     117.1      68.8      72.1      45.0
     4     4  2023    14    2     463.3    448.3    0.47    139.3     236.4     141.8     111.2      72.4      68.3      47.3
     5     4  2023    15    2     460.9    445.9    0.49    143.9     247.1     148.3     116.2      75.7      71.4      49.4
     6     4  2023    16    2     458.5    443.5    0.51    147.9     257.5     154.5     123.3      80.4      75.8      51.5
     7     4  2023    17    2     460.9    445.9    0.53    156.4     267.5     160.5     125.0      81.4      76.8      53.5
     8     4  2023    18    2     459.1    444.1    0.55    160.4     277.2     166.3     131.2      85.5      80.6      55.4
     9     4  2023    19    2     456.9    441.9    0.57    163.9     286.6     172.0     137.7      89.8      84.7      57.3
    10     4  2023    20    2     456.0    441.0    0.59    168.5     295.8     177.5     144.7      94.4      89.0      59.2
    11     4  2023    21    2     459.2    444.2    0.61    177.1     304.8     182.9     146.0      95.2      89.8      61.0
    12     4  2023    22    2     457.9    442.9    0.63    181.0     313.6     188.2     152.5      99.5      93.8      62.7
    13     4  2023    23    2     456.0    441.0    0.64    184.3     322.2     193.3     153.9     100.3      94.6      64.4
    14     4  2023    24    2     470.7    455.7    0.66    204.1     330.6     198.4     153.1      99.7      94.1      66.1
    15     4  2023    25    2     478.1    463.0    0.68    215.9     338.9     203.3     156.9     102.2      96.4      67.8
[...]
     9     5  2024    49    2     415.8    400.8    1.02    255.7     508.2     304.9     256.1     167.3     157.5     101.6
    10     5  2024    50    2     413.3    398.3    1.03    256.9     514.4     308.7     260.7     170.3     160.4     102.9
    11     5  2024    51    2     410.9    395.9    1.04    258.3     520.6     312.4     260.1     169.8     160.0     104.1
    12     5  2024    52    2     407.8    392.8    1.05    258.9     526.7     316.0     272.4     178.1     167.6     105.3
    13     5  2024    53    2     403.5    388.5    1.07    258.2     532.8     319.7     286.4     187.5     176.3     106.6
    14     5  2024    54    2     399.0    384.0    1.08    257.3     538.9     323.3     291.3     190.7     179.3     107.8
    15     5  2024    55    2     393.9    378.9    1.09    255.8     544.9     326.9     299.3     196.0     184.3     109.0
    16     5  2024    56    2     388.7    373.7    1.10    254.2     550.9     330.5     301.7     197.6     185.8     110.2
    17     5  2024    57    2     383.7    368.7    1.11    252.8     556.8     334.1     301.7     197.6     185.8     111.4
    18     5  2024    58    2     380.7    365.7    1.13    253.3     562.7     337.6     282.7     184.6     173.9     112.5
    19     5  2024    59    2     384.8    369.8    1.14    260.9     568.5     341.1     282.3     184.3     173.7     113.7
    20     5  2024    60    2     380.5    365.5    1.15    260.1     574.3     344.6     290.3     189.6     178.6     114.9
    21     5  2024    61    2     375.8    360.8    1.16    258.9     580.1     348.1     306.7     200.7     188.8     116.0
    22     5  2024    62    2     371.9    356.9    1.17    258.4     585.8     351.5     302.1     197.4     185.9     117.2
    23     5  2024    63    2     367.9    352.9    1.18    257.8     591.6     354.9     305.0     199.4     187.7     118.3
    24     5  2024    64    2     371.3    356.3    1.19    264.6     597.2     358.3     307.1     200.7     188.9     119.4
    25     5  2024    65    2     391.2    376.2    1.21    287.9     602.9     361.7     304.7     199.0     187.4     120.6
    26     5  2024    66    2     387.4    372.4    1.22    287.5     608.5     365.1     311.1     203.3     191.4     121.7
    27     5  2024    67    2     382.9    367.9    1.23    286.3     614.1     368.4     313.9     205.1     193.1     122.8
    28     5  2024    68    2     385.5    370.5    1.24    292.3     619.6     371.8     305.9     199.6     188.1     123.9
    29     5  2024    69    2     381.3    366.3    1.25    291.4     625.1     375.1     318.7     208.2     196.1     125.0
    30     5  2024    70    2     377.9    362.9    1.26    291.3     630.6     378.4     315.0     205.7     193.8     126.1
    31     5  2024    71    2     374.1    359.1    1.27    290.8     636.1     381.6     321.5     210.0     197.8     127.2
     1     6  2024    72    2     379.8    364.8    1.28    299.7     641.5     384.9     328.9     214.9     202.4     128.3
     2     6  2024    73    2     375.2    360.2    1.29    298.3     646.9     388.1     329.8     215.5     202.9     129.4
     3     6  2024    74    2     372.3    357.3    1.30    298.7     652.3     391.4     317.3     206.9     195.1     130.5
     4     6  2024    75    2     368.0    353.0    1.32    297.5     657.6     394.6     332.4     217.1     204.5     131.5
     5     6  2024    76    2     368.3    353.3    1.33    301.1     663.0     397.8     332.1     216.9     204.3     132.6
     6     6  2024    77    2     364.4    349.4    1.34    300.3     668.3     401.0     338.7     221.3     208.4     133.7
     7     6  2024    78    2     360.6    345.6    1.35    299.7     673.5     404.1     339.4     221.7     208.8     134.7
     8     6  2024    79    2     354.8    339.8    1.36    297.1     678.8     407.3     361.9     236.8     222.8     135.8
     9     6  2024    80    2     350.1    335.1    1.37    295.5     684.0     410.4     353.7     231.2     217.6     136.8
    10     6  2024    81    2     348.4    333.4    1.38    297.0     689.2     413.5     349.3     228.2     214.9     137.8
    11     6  2024    82    2     344.1    329.1    1.39    295.7     694.4     416.7     352.0     229.9     216.5     138.9
    12     6  2024    83    2     340.2    325.2    1.40    294.9     699.6     419.7     351.5     229.6     216.2     139.9
    13     6  2024    84    2     336.0    321.0    1.41    293.9     704.7     422.8     356.1     232.6     219.1     140.9
    14     6  2024    85    2     335.5    320.5    1.42    296.4     709.8     425.9     355.6     232.2     218.8     142.0
    15     6  2024    86    2     333.1    318.1    1.43    297.0     714.9     429.0     367.6     240.2     226.2     143.0
    16     6  2024    87    2     327.1    312.1    1.44    294.1     720.0     432.0     379.7     248.4     233.7     144.0
    17     6  2024    88    2     322.9    307.9    1.45    292.9     725.0     435.0     372.8     243.6     229.4     145.0
    18     6  2024    89    2     329.2    314.2    1.46    302.3     730.1     438.0     383.9     251.1     236.3     146.0
    19     6  2024    90    2     330.1    315.1    1.47    306.1     735.1     441.1     357.5     233.2     219.9     147.0
    20     6  2024    91    2     325.5    310.5    1.48    304.6     740.1     444.0     376.2     245.8     231.4     148.0
    21     6  2024    92    2     323.6    308.6    1.49    305.6     745.0     447.0     386.3     252.6     237.7     149.0
    22     6  2024    93    2     336.9    321.9    1.50    321.9     750.0     450.0     382.3     249.8     235.2     150.0
    23     6  2024    94    2     332.2    317.2    1.50    317.2     750.0     450.0     382.3     249.8     235.2     150.0
    24     6  2024    95    2     327.2    312.2    1.50    312.2     750.0     450.0     385.6     252.0     237.3     150.0
    25     6  2024    96    2     321.2    306.2    1.50    306.2     750.0     450.0     395.5     258.7     243.4     150.0
    26     6  2024    97    2     314.2    299.2    1.50    299.2     750.0     450.0     406.4     266.1     250.2     150.0
    27     6  2024    98    2     309.8    294.8    1.50    294.8     750.0     450.0     394.4     258.0     242.7     150.0
    28     6  2024    99    2     303.3    288.3    1.50    288.3     750.0     450.0     401.0     262.4     246.8     150.0
    29     6  2024   100    2     305.6    290.6    1.50    290.6     750.0     450.0     404.3     264.6     248.9     150.0
    30     6  2024   101    2     305.4    290.4    1.50    290.4     750.0     450.0     383.4     250.6     235.9     150.0
     1     7  2024   102    2     315.6    300.6    1.50    300.6     750.0     450.0     370.3     241.7     227.7     150.0
     2     7  2024   103    2     313.0    298.0    1.50    298.0     750.0     450.0     364.8     237.9     224.3     150.0
     3     7  2024   104    2     309.5    294.5    1.50    294.5     750.0     450.0     370.3     241.7     227.7     150.0
     4     7  2024   105    2     311.3    296.3    1.50    296.3     750.0     450.0     371.4     242.4     228.4     150.0
     5     7  2024   106    2     306.7    291.7    1.50    291.7     750.0     450.0     382.3     249.8     235.2     150.0
     6     7  2024   107    2     307.5    292.5    1.50    292.5     750.0     450.0     406.4     266.1     250.2     150.0
     7     7  2024   108    2     302.5    287.5    1.50    287.5     750.0     450.0     385.6     252.0     237.3     150.0
     8     7  2024   109    2     296.7    281.7    1.50    281.7     750.0     450.0     394.4     258.0     242.7     150.0
     9     7  2024   110    2     289.8    274.8    1.50    274.8     750.0     450.0     404.3     264.6     248.9     150.0
    10     7  2024   111    2     305.8    290.8    1.50    290.8     750.0     450.0     392.2     256.5     241.4     150.0
    11     7  2024   112    2     323.7    308.7    1.50    308.7     750.0     450.0     381.2     249.1     234.5     150.0
    12     7  2024   113    2     333.8    318.8    1.50    318.8     750.0     450.0     370.3     241.7     227.7     150.0
    13     7  2024   114    2     329.4    314.4    1.50    314.4     750.0     450.0     379.0     247.6     233.2     150.0
    14     7  2024   115    2     324.6    309.6    1.50    309.6     750.0     450.0     384.5     251.3     236.6     150.0
    15     7  2024   116    2     318.8    303.8    1.50    303.8     750.0     450.0     393.3     257.2     242.0     150.0
    16     7  2024   117    2     313.4    298.4    1.50    298.4     750.0     450.0     390.0     255.0     240.0     150.0
    17     7  2024   118    2     308.2    293.2    1.50    293.2     750.0     450.0     387.8     253.5     238.6     150.0
    18     7  2024   119    2     303.3    288.3    1.50    288.3     750.0     450.0     384.5     251.3     236.6     150.0
    19     7  2024   120    2     297.8    282.8    1.50    282.8     750.0     450.0     391.1     255.7     240.7     150.0
    20     7  2024   121    2     291.6    276.6    1.50    276.6     750.0     450.0     397.7     260.2     244.8     150.0
    21     7  2024   122    2     285.3    270.3    1.50    270.3     750.0     450.0     401.0     262.4     246.8     150.0
    22     7  2024   123    2     280.8    265.8    1.50    265.8     750.0     450.0     381.2     249.1     234.5     150.0
    23     7  2024   124    2     282.4    267.4    1.50    267.4     750.0     450.0     388.9     254.3     239.3     150.0
    24     7  2024   125    2     280.4    265.4    1.50    265.4     750.0     450.0     374.6     244.6     230.5     150.0
    25     7  2024   126    2     275.8    260.8    1.50    260.8     750.0     450.0     381.2     249.1     234.5     150.0
    26     7  2024   127    2     272.3    257.3    1.50    257.3     750.0     450.0     377.9     246.8     232.5     150.0
    27     7  2024   128    3     304.5    289.5    1.50    289.5     750.0     450.0     367.0     239.4     225.7     150.0
    28     7  2024   129    3     302.5    287.5    1.50    287.5     750.0     450.0     374.6     244.6     230.5     150.0
    29     7  2024   130    3     298.0    283.0    1.50    283.0     750.0     450.0     380.1     248.3     233.9     150.0
    30     7  2024   131    3     292.9    277.9    1.50    277.9     750.0     450.0     387.8     253.5     238.6     150.0
    31     7  2024   132    3     287.7    272.7    1.50    272.7     750.0     450.0     388.9     254.3     239.3     150.0
     1     8  2024   133    3     283.1    268.1    1.50    268.1     750.0     450.0     384.5     251.3     236.6     150.0
     2     8  2024   134    3     280.7    265.7    1.50    265.7     750.0     450.0     368.1     240.2     226.4     150.0
     3     8  2024   135    3     280.6    265.6    1.50    265.6     750.0     450.0     377.9     246.8     232.5     150.0
     4     8  2024   136    3     278.3    263.3    1.50    263.3     750.0     450.0     373.6     243.9     229.8     150.0
     5     8  2024   137    3     274.2    259.2    1.50    259.2     750.0     450.0     376.8     246.1     231.8     150.0
     6     8  2024   138    3     269.6    254.6    1.50    254.6     750.0     450.0     383.4     250.6     235.9     150.0
     7     8  2024   139    3     264.4    249.4    1.50    249.4     750.0     450.0     388.9     254.3     239.3     150.0
     8     8  2024   140    3     260.4    245.4    1.50    245.4     750.0     450.0     376.8     246.1     231.8     150.0
     9     8  2024   141    3     256.2    241.2    1.50    241.2     750.0     450.0     381.2     249.1     234.5     150.0
    10     8  2024   142    3     252.0    237.0    1.50    237.0     750.0     450.0     385.6     252.0     237.3     150.0
    11     8  2024   143    4     248.3    233.3    1.50    233.3     750.0     450.0     380.1     248.3     233.9     150.0
    12     8  2024   144    4     244.7    229.7    1.50    229.7     750.0     450.0     381.2     249.1     234.5     150.0
    13     8  2024   145    4     240.3    225.3    1.50    225.3     750.0     450.0     402.1     263.2     271.8     150.0
    14     8  2024   146    4     236.3    221.3    1.50    221.3     750.0     450.0     397.7     260.2     269.4     150.0
    15     8  2024   147    4     233.4    218.4    1.50    218.4     750.0     450.0     379.0     247.6     259.2     150.0
    16     8  2024   148    4     230.1    215.1    1.50    215.1     750.0     450.0     391.1     255.7     265.8     150.0
    17     8  2024   149    4     227.2    212.2    1.50    212.2     750.0     450.0     382.3     249.8     261.0     150.0
    18     8  2024   150    4     225.1    210.1    1.50    210.1     750.0     450.0     369.2     240.9     253.8     150.0
    19     8  2024   151    4     222.8    207.8    1.50    207.8     750.0     450.0     374.6     244.6     256.8     150.0
    20     8  2024   152    4     220.5    205.5    1.50    205.5     750.0     450.0     384.5     251.3     262.2     150.0
    21     8  2024   153    4     217.8    202.8    1.50    202.8     750.0     450.0     387.8     253.5     264.0     150.0
    22     8  2024   154    4     215.7    200.7    1.50    200.7     750.0     450.0     377.9     246.8     258.6     150.0
    23     8  2024   155    4     212.9    198.1    1.50    198.1     750.0     450.0     406.4     266.1     274.2     150.0
    24     8  2024   156    4     210.4    195.7    1.50    195.7     750.0     450.0     405.4     265.4     273.6     150.0
    25     8  2024   157    4     208.4    193.6    1.50    193.6     750.0     450.0     387.8     253.5     264.0     150.0
    26     8  2024   158    4     206.8    192.1    1.50    192.1     750.0     450.0     373.6     243.9     256.2     150.0
    27     8  2024   159    4     205.2    190.4    1.50    190.4     750.0     450.0     382.3     249.8     261.0     150.0
    28     8  2024   160    4     203.3    188.6    1.50    188.6     750.0     450.0     392.2     256.5     266.4     150.0
    29     8  2024   161    4     201.7    187.0    1.50    187.0     750.0     450.0     388.9     254.3     264.6     150.0
    30     8  2024   162    4     200.3    185.6    1.50    185.6     750.0     450.0     381.2     249.1     260.4     150.0
    31     8  2024   163    4     199.3    184.5    1.50    184.5     750.0     450.0     368.1     240.2     253.2     150.0
     1     9  2024   164    4     198.1    183.4    1.50    183.4     750.0     450.0     375.7     245.4     257.4     150.0
     2     9  2024   165    4     196.9    182.2    1.50    182.2     750.0     450.0     379.0     247.6     259.2     150.0
     3     9  2024   166    4     195.8    181.0    1.50    181.0     750.0     450.0     383.4     250.6     261.6     150.0
     4     9  2024   167    4     194.5    179.7    1.50    179.7     750.0     450.0     397.7     260.2     269.4     150.0
     5     9  2024   168    4     193.2    178.5    1.50    178.5     750.0     450.0     403.2     263.9     272.4     150.0
     6     9  2024   169    4     192.2    177.5    1.50    177.5     750.0     450.0     387.8     253.5     264.0     150.0
     7     9  2024   170    4     191.2    176.7    1.50    176.7     750.0     450.0     387.8     253.5     264.0     150.0
     8     9  2024   171    4     190.3    175.9    1.50    175.9     750.0     450.0     393.3     257.2     267.0     150.0
     9     9  2024   172    4     202.2    187.8    1.50    187.8     750.0     450.0     358.2     233.5     247.8     150.0
    10     9  2024   173    4     200.0    185.6    1.50    185.6     750.0     450.0     363.7     237.2     223.6     150.0
    11     9  2024   174    4     198.1    183.7    1.50    183.7     750.0     450.0     360.4     235.0     221.6     150.0
    12     9  2024   175    4     196.9    182.5    1.50    182.5     750.0     450.0     357.1     232.8     219.5     150.0
    13     9  2024   176    4     207.2    192.8    1.50    192.8     750.0     450.0     351.6     229.0     216.1     150.0
    14     9  2024   177    4     205.1    190.7    1.50    190.7     750.0     450.0     363.7     237.2     223.6     150.0
    15     9  2024   178    4     212.0    197.6    1.50    197.6     750.0     450.0     357.1     232.8     219.5     150.0
    16     9  2024   179    4     213.8    199.4    1.50    199.4     750.0     450.0     348.3     226.8     214.1     150.0
    17     9  2024   180    4     212.1    197.7    1.50    197.7     750.0     450.0     360.4     235.0     221.6     150.0
    18     9  2024   181    4     210.4    196.0    1.50    196.0     750.0     450.0     360.4     235.0     221.6     150.0
    19     9  2024   182    4     208.5    194.1    1.50    194.1     750.0     450.0     362.6     236.5     223.0     150.0
    20     9  2024   183    4     206.4    192.0    1.50    192.0     750.0     450.0     369.2     240.9     227.0     150.0
    21     9  2024   184    4     204.5    190.1    1.50    190.1     750.0     450.0     369.2     240.9     227.0     150.0
    22     9  2024   185    4     203.2    188.8    1.50    188.8     750.0     450.0     364.8     237.9     224.3     150.0
    23     9  2024   186    4     202.1    187.7    1.50    187.7     750.0     450.0     362.6     236.5     223.0     150.0
    24     9  2024   187    4     209.3    194.9    1.50    194.9     750.0     450.0     350.5     228.3     215.5     150.0
    25     9  2024   188    4     208.9    194.5    1.50    194.5     750.0     450.0     358.2     233.5     220.2     150.0
    26     9  2024   189    4     209.2    194.8    1.50    194.8     750.0     450.0     358.2     233.5     220.2     150.0
    27     9  2024   190    4     207.9    193.5    1.50    193.5     750.0     450.0     375.7     245.4     231.1     150.0
    28     9  2024   191    4     207.2    192.8    1.50    192.8     750.0     450.0     362.6     236.5     223.0     150.0
    29     9  2024   192    4     206.8    192.4    1.50    192.4     750.0     450.0     351.6     229.0     216.1     150.0
    30     9  2024   193    4     206.3    191.9    1.50    191.9     750.0     450.0     359.3     234.2     220.9     150.0
     1    10  2024   194    4     213.0    198.6    1.50    198.6     750.0     450.0     347.2     226.1     213.4     150.0
     2    10  2024   195    4     215.8    201.4    1.50    201.4     750.0     450.0     341.8     222.4     210.0     150.0
     3    10  2024   196    4     216.7    202.3    1.50    202.3     750.0     450.0     345.0     224.6     212.0     150.0
     4    10  2024   197    4     218.0    203.6    1.50    203.6     750.0     450.0     345.0     224.6     212.0     150.0

Legend

DAP          : Days after planting
Stage        : 0: before/after planting
Stage        : 1: emergence or transplant recovery
Stage        : 2: vegetative stage
Stage        : 3: flowering
Stage        : 4: yield formation and ripening
WCTot        : Water content in total soil profile (layer: 0.00 - 1.55 m)
Wr(Zx)       : Water content in maximum effective root zone (Zx = 1.50 m)
Z            : Effective rooting depth
Wr           : Water content in effective root zone
Wr(Sat)      : Water content in effective root zone if saturated
Wr(FC)       : Water content in effective root zone at field capacity
Wr(exp)      : Water content in effective root zone at upper threshold for leaf expansion
Wr(sto)      : Water content in effective root zone at upper threshold for stomatal closure
Wr(sen)      : Water content in effective root zone at upper threshold for early canopy senescence
Wr(PWP)      : Water content in effective root zone at permanent wilting point
