AquaCrop 6.1 (May 2018) - Output created on (date) : 5/16/2025   at (time) : 10:14:27 AM
Soil Water balance

** Run number:  1
   Day Month  Year   DAP Stage     WCTot    Rain     Irri   Surf   Infilt   RO    Drain       CR    Zgwt       Ex       E     E/Ex    Trx       Tr  Tr/Trx    ETx      ET   ET/ETx
                                      mm      mm       mm     mm     mm     mm       mm       mm      m        mm       mm     %       mm       mm    %        mm      mm      %
    22     3  2020     1    1      463.3     0.0      0.0    0.0    0.0    0.0      0.0      0.0   -9.90      1.9      1.7    92      0.0      0.0   100      1.9     1.7     92
    23     3  2020     2    1      462.0     0.0      0.0    0.0    0.0    0.0      0.0      0.0   -9.90      1.7      1.3    78      0.0      0.0   100      1.7     1.3     78
    24     3  2020     3    1      460.5     0.0      0.0    0.0    0.0    0.0      0.0      0.0   -9.90      2.2      1.5    67      0.0      0.0   100      2.2     1.5     67
    25     3  2020     4    1      459.0     0.0      0.0    0.0    0.0    0.0      0.0      0.0   -9.90      2.8      1.6    57      0.0      0.0   100      2.8     1.6     57
    26     3  2020     5    1      457.6     0.0      0.0    0.0    0.0    0.0      0.0      0.0   -9.90      2.8      1.3    48      0.0      0.0   100      2.8     1.3     48
    27     3  2020     6    1      456.4     0.0      0.0    0.0    0.0    0.0      0.0      0.0   -9.90      3.0      1.2    42      0.0      0.0   100      3.0     1.2     42
    28     3  2020     7    1      455.4     0.0      0.0    0.0    0.0    0.0      0.0      0.0   -9.90      2.6      1.0    37      0.0      0.0   100      2.6     1.0     37
    29     3  2020     8    1      454.7     0.7      0.0    0.0    0.7    0.0      0.0      0.0   -9.90      1.5      1.4    93      0.0      0.0   100      1.5     1.4     93
    30     3  2020     9    1      453.4     0.0      0.0    0.0    0.0    0.0      0.0      0.0   -9.90      1.7      1.3    76      0.0      0.0   100      1.7     1.3     76
    31     3  2020    10    1      452.4     0.0      0.0    0.0    0.0    0.0      0.0      0.0   -9.90      1.7      1.1    64      0.0      0.0   100      1.7     1.1     64
     1     4  2020    11    1      451.1     0.0      0.0    0.0    0.0    0.0      0.0      0.0   -9.90      2.4      1.3    54      0.0      0.0   100      2.4     1.3     54
     2     4  2020    12    1      449.9     0.0      0.0    0.0    0.0    0.0      0.0      0.0   -9.90      2.6      1.2    45      0.0      0.0   100      2.6     1.2     45
     3     4  2020    13    1      448.6     0.0      0.0    0.0    0.0    0.0      0.0      0.0   -9.90      3.3      1.2    38      0.0      0.0   100      3.3     1.2     38
     4     4  2020    14    2      447.9     0.0      0.0    0.0    0.0    0.0      0.0      0.0   -9.90      1.9      0.6    33      0.1      0.1   100      2.0     0.7     35
     5     4  2020    15    2      446.7     0.0      0.0    0.0    0.0    0.0      0.0      0.0   -9.90      3.5      1.0    29      0.2      0.2   100      3.7     1.2     33
     6     4  2020    16    2      445.0     0.0      0.0    0.0    0.0    0.0      0.0      0.0   -9.90      4.5      1.1    24      0.6      0.6   100      5.1     1.7     33
     7     4  2020    17    2      443.9     0.0      0.0    0.0    0.0    0.0      0.0      0.0   -9.90      3.2      0.6    19      0.5      0.5   100      3.7     1.1     29
     8     4  2020    18    2      442.8     0.0      0.0    0.0    0.0    0.0      0.0      0.0   -9.90      3.6      0.6    17      0.5      0.5   100      4.1     1.1     28
     9     4  2020    19    2      441.9     0.0      0.0    0.0    0.0    0.0      0.0      0.0   -9.90      3.0      0.4    15      0.4      0.4   100      3.4     0.9     25
    10     4  2020    20    2      441.4     0.0      0.0    0.0    0.0    0.0      0.0      0.0   -9.90      2.4      0.3    13      0.2      0.2   100      2.7     0.6     21
    11     4  2020    21    2      440.9     0.0      0.0    0.0    0.0    0.0      0.0      0.0   -9.90      2.4      0.3    13      0.2      0.2   100      2.6     0.5     20
    12     4  2020    22    2      440.0     2.8      0.0    0.0    2.8    0.0      0.0      0.0   -9.90      3.9      2.9    75      0.7      0.7   100      4.6     3.6     78
    13     4  2020    23    2      439.7     0.9      0.0    0.0    0.9    0.0      0.0      0.0   -9.90      2.3      1.0    46      0.2      0.2   100      2.4     1.2     50
    14     4  2020    24    2      439.3     0.0      0.0    0.0    0.0    0.0      0.0      0.0   -9.90      2.5      0.3    10      0.1      0.1   100      2.6     0.4     14
    15     4  2020    25    2      438.5     0.0      0.0    0.0    0.0    0.0      0.0      0.0   -9.90      3.2      0.3    10      0.5      0.5   100      3.7     0.9     23
    16     4  2020    26    2      437.6     0.0      0.0    0.0    0.0    0.0      0.0      0.0   -9.90      3.3      0.3     9      0.6      0.6   100      3.9     0.9     23
    17     4  2020    27    2      436.9     0.0      0.0    0.0    0.0    0.0      0.0      0.0   -9.90      2.6      0.2     8      0.5      0.5   100      3.1     0.7     23
    18     4  2020    28    2      436.0     0.0      0.0    0.0    0.0    0.0      0.0      0.0   -9.90      3.2      0.2     8      0.6      0.6   100      3.8     0.9     23
    19     4  2020    29    2      435.4     0.0      0.0    0.0    0.0    0.0      0.0      0.0   -9.90      3.0      0.2     7      0.4      0.4   100      3.4     0.6     19
    20     4  2020    30    2      434.7     0.0      0.0    0.0    0.0    0.0      0.0      0.0   -9.90      3.1      0.2     7      0.5      0.5   100      3.6     0.7     20
    21     4  2020    31    2      433.4     0.0      0.0    0.0    0.0    0.0      0.0      0.0   -9.90      3.4      0.2     7      1.0      1.0   100      4.5     1.2     28
    22     4  2020    32    2      432.3     0.0      0.0    0.0    0.0    0.0      0.0      0.0   -9.90      3.2      0.2     6      0.9      0.9   100      4.2     1.1     27
    23     4  2020    33    2      431.1     0.0      0.0    0.0    0.0    0.0      0.0      0.0   -9.90      3.0      0.2     6      1.0      1.0   100      4.0     1.2     30
    24     4  2020    34    2      429.5     0.0      0.0    0.0    0.0    0.0      0.0      0.0   -9.90      3.6      0.2     5      1.4      1.4   100      5.0     1.6     32
    25     4  2020    35    2      428.4     0.0      0.0    0.0    0.0    0.0      0.0      0.0   -9.90      2.4      0.1     5      1.0      1.0   100      3.4     1.1     32
    26     4  2020    36    2      427.3     0.0      0.0    0.0    0.0    0.0      0.0      0.0   -9.90      2.5      0.1     4      1.0      1.0   100      3.5     1.1     32
    27     4  2020    37    2      425.8     0.0      0.0    0.0    0.0    0.0      0.0      0.0   -9.90      3.2      0.1     4      1.4      1.4   100      4.6     1.5     34
    28     4  2020    38    2      424.1     1.9      0.0    0.0    1.9    0.0      0.0      0.0   -9.90      3.3      2.0    59      1.7      1.7   100      5.0     3.6     73
    29     4  2020    39    2      423.2     1.2      0.0    0.0    1.2    0.0      0.0      0.0   -9.90      1.6      1.2    75      0.9      0.9   100      2.5     2.1     84
    30     4  2020    40    2      421.8     0.4      0.0    0.0    0.4    0.0      0.0      0.0   -9.90      2.3      0.5    20      1.3      1.3   100      3.6     1.8     49
     1     5  2020    41    2      420.2     0.1      0.0    0.0    0.1    0.0      0.0      0.0   -9.90      2.5      0.2     7      1.6      1.6   100      4.1     1.7     42
     2     5  2020    42    2      419.3     1.1      0.0    0.0    1.1    0.0      0.0      0.0   -9.90      1.6      1.1    71      0.9      0.9   100      2.5     2.0     82
     3     5  2020    43    2      418.3     0.0      0.0    0.0    0.0    0.0      0.0      0.0   -9.90      1.8      0.0     3      0.9      0.9   100      2.7     1.0     36
     4     5  2020    44    2      417.6     1.0      0.0    0.0    1.0    0.0      0.0      0.0   -9.90      1.5      1.0    66      0.7      0.7   100      2.2     1.7     77
     5     5  2020    45    2      416.8     0.6      0.0    0.0    0.6    0.0      0.0      0.0   -9.90      1.6      0.6    39      0.7      0.7   100      2.3     1.4     58
     6     5  2020    46    2      415.1     0.0      0.0    0.0    0.0    0.0      0.0      0.0   -9.90      2.2      0.1     2      1.7      1.7   100      3.9     1.7     45
     7     5  2020    47    2      413.5     0.0      0.0    0.0    0.0    0.0      0.0      0.0   -9.90      1.8      0.0     2      1.5      1.5   100      3.3     1.5     47
     8     5  2020    48    2      411.1     0.0      0.0    0.0    0.0    0.0      0.0      0.0   -9.90      2.3      0.1     2      2.4      2.4   100      4.7     2.4     52
     9     5  2020    49    2      408.3     0.0      0.0    0.0    0.0    0.0      0.0      0.0   -9.90      2.4      0.1     2      2.7      2.7   100      5.1     2.7     54
    10     5  2020    50    2      405.6     0.8      0.0    0.0    0.8    0.0      0.0      0.0   -9.90      2.2      0.8    38      2.7      2.7   100      4.9     3.6     73
    11     5  2020    51    2      414.8    11.2      0.0    0.0   11.2    0.0      0.0      0.0   -9.90      1.1      1.1   100      0.9      0.9   100      2.0     2.0    100
    12     5  2020    52    2      413.1     0.0      0.0    0.0    0.0    0.0      0.0      0.0   -9.90      1.2      1.2   100      0.4      0.4   100      1.6     1.6    100
    13     5  2020    53    2      410.8     0.0      0.0    0.0    0.0    0.0      0.0      0.0   -9.90      1.3      1.3   100      1.0      1.0   100      2.3     2.3    100
    14     5  2020    54    2      408.4     0.0      0.0    0.0    0.0    0.0      0.0      0.0   -9.90      1.2      1.2   100      1.3      1.3   100      2.5     2.5    100
    15     5  2020    55    2      405.7     0.0      0.0    0.0    0.0    0.0      0.0      0.0   -9.90      1.3      1.3   100      1.3      1.3   100      2.7     2.7    100
    16     5  2020    56    2      403.1     0.1      0.0    0.0    0.1    0.0      0.0      0.0   -9.90      1.3      0.1    10      2.6      2.6   100      3.9     2.7     69
    17     5  2020    57    2      399.9     0.0      0.0    0.0    0.0    0.0      0.0      0.0   -9.90      1.4      0.0     2      3.1      3.1   100      4.5     3.1     70
    18     5  2020    58    2      395.9     0.0      0.0    0.0    0.0    0.0      0.0      0.0   -9.90      1.6      0.0     2      4.0      4.0   100      5.6     4.0     72
    19     5  2020    59    2      392.6     0.0      0.0    0.0    0.0    0.0      0.0      0.0   -9.90      1.2      0.0     2      3.3      3.3   100      4.5     3.3     74
    20     5  2020    60    2      389.4     0.0      0.0    0.0    0.0    0.0      0.0      0.0   -9.90      1.1      0.0     2      3.2      3.2   100      4.4     3.3     75
    21     5  2020    61    2      385.9     0.0      0.0    0.0    0.0    0.0      0.0      0.0   -9.90      1.2      0.0     2      3.5      3.5   100      4.6     3.5     75
    22     5  2020    62    2      382.7     2.4      0.0    0.0    2.4    0.0      0.0      0.0   -9.90      1.3      1.3   100      4.3      4.3   100      5.6     5.6    100
    23     5  2020    63    2      380.1     1.1      0.0    0.0    1.1    0.0      0.0      0.0   -9.90      0.8      0.8   100      2.9      2.9   100      3.7     3.7    100
    24     5  2020    64    2      391.7    14.9      0.0    0.0   14.9    0.0      0.0      0.0   -9.90      0.7      0.7   100      2.6      2.6   100      3.3     3.3    100
    25     5  2020    65    2      390.3     0.6      0.0    0.0    0.6    0.0      0.0      0.0   -9.90      0.4      0.4   100      1.6      1.6   100      2.0     2.0    100
    26     5  2020    66    2      386.6     0.0      0.0    0.0    0.0    0.0      0.0      0.0   -9.90      0.8      0.3    35      3.4      3.4   100      4.2     3.7     88
    27     5  2020    67    2      382.6     0.3      0.0    0.0    0.3    0.0      0.0      0.0   -9.90      0.9      0.4    41      3.9      3.9   100      4.8     4.3     89
    28     5  2020    68    2      378.9     0.0      0.0    0.0    0.0    0.0      0.0      0.0   -9.90      0.7      0.0     4      3.7      3.7   100      4.5     3.7     84
    29     5  2020    69    2      375.1     0.0      0.0    0.0    0.0    0.0      0.0      0.0   -9.90      0.7      0.0     2      3.7      3.7   100      4.5     3.8     84
    30     5  2020    70    2      371.6     0.0      0.0    0.0    0.0    0.0      0.0      0.0   -9.90      0.6      0.0     2      3.5      3.5   100      4.1     3.5     85
    31     5  2020    71    2      367.2     0.0      0.0    0.0    0.0    0.0      0.0      0.0   -9.90      0.7      0.0     2      4.4      4.4   100      5.1     4.4     86
     1     6  2020    72    2      362.3     0.0      0.0    0.0    0.0    0.0      0.0      0.0   -9.90      0.8      0.0     2      4.9      4.9   100      5.7     4.9     86
     2     6  2020    73    2      356.9     0.0      0.0    0.0    0.0    0.0      0.0      0.0   -9.90      0.8      0.0     2      5.4      5.4   100      6.2     5.4     87
     3     6  2020    74    2      351.9     0.0      0.0    0.0    0.0    0.0      0.0      0.0   -9.90      0.7      0.0     2      5.0      5.0   100      5.8     5.1     88
     4     6  2020    75    2      348.2     1.8      0.0    0.0    1.8    0.0      0.0      0.0   -9.90      0.7      0.7   100      4.8      4.8   100      5.4     5.4    100
     5     6  2020    76    2      345.0     0.3      0.0    0.0    0.3    0.0      0.0      0.0   -9.90      0.4      0.3    71      3.3      3.3   100      3.7     3.6     97
     6     6  2020    77    2      340.7     0.0      0.0    0.0    0.0    0.0      0.0      0.0   -9.90      0.5      0.0     3      4.3      4.3   100      4.8     4.3     89
     7     6  2020    78    2      337.3     0.5      0.0    0.0    0.5    0.0      0.0      0.0   -9.90      0.4      0.4   100      3.5      3.5   100      3.9     3.9    100
     8     6  2020    79    2      332.6     0.0      0.0    0.0    0.0    0.0      0.0      0.0   -9.90      0.5      0.1    18      4.6      4.6   100      5.1     4.7     92
     9     6  2020    80    2      328.6     0.0      0.0    0.0    0.0    0.0      0.0      0.0   -9.90      0.4      0.0     3      3.9      3.9   100      4.4     3.9     90
    10     6  2020    81    2      324.2     0.3      0.0    0.0    0.3    0.0      0.0      0.0   -9.90      0.5      0.3    66      4.4      4.4   100      4.9     4.7     97
    11     6  2020    82    2      320.8     0.3      0.0    0.0    0.3    0.0      0.0      0.0   -9.90      0.3      0.3    89      3.4      3.4   100      3.7     3.7     99
    12     6  2020    83    2      319.8     3.7      0.0    0.0    3.7    0.0      0.0      0.0   -9.90      0.4      0.4   100      4.4      4.4   100      4.8     4.8    100
    13     6  2020    84    2      316.9     3.3      0.0    0.0    3.3    0.0      0.0      0.0   -9.90      0.5      0.5   100      5.7      5.7   100      6.2     6.2    100
    14     6  2020    85    2      311.5     0.0      0.0    0.0    0.0    0.0      0.0      0.0   -9.90      0.4      0.4   100      4.9      4.9   100      5.3     5.3    100
    15     6  2020    86    2      305.9     0.0      0.0    0.0    0.0    0.0      0.0      0.0   -9.90      0.5      0.5   100      5.2      5.2   100      5.7     5.7    100
    16     6  2020    87    2      300.2     0.0      0.0    0.0    0.0    0.0      0.0      0.0   -9.90      0.4      0.4   100      5.2      5.2   100      5.7     5.7    100
    17     6  2020    88    2      294.2     0.0      0.0    0.0    0.0    0.0      0.0      0.0   -9.90      0.5      0.5   100      5.5      5.5   100      6.0     6.0    100
    18     6  2020    89    2      290.5     1.5      0.0    0.0    1.5    0.0      0.0      0.0   -9.90      0.4      0.4   100      4.8      4.8   100      5.2     5.2    100
    19     6  2020    90    2      288.3     0.6      0.0    0.0    0.6    0.0      0.0      0.0   -9.90      0.2      0.2   100      2.6      2.6   100      2.8     2.8    100
    20     6  2020    91    2      284.7     0.5      0.0    0.0    0.5    0.0      0.0      0.0   -9.90      0.3      0.3   100      3.7      3.7   100      4.0     4.0    100
    21     6  2020    92    2      279.8     0.0      0.0    0.0    0.0    0.0      0.0      0.0   -9.90      0.4      0.2    59      4.8      4.8   100      5.1     5.0     97
    22     6  2020    93    2      273.9     0.0      0.0    0.0    0.0    0.0      0.0      0.0   -9.90      0.4      0.0     2      5.9      5.9   100      6.3     5.9     93
    23     6  2020    94    2      268.4     0.0      0.0    0.0    0.0    0.0      0.0      0.0   -9.90      0.4      0.0     2      5.5      5.5   100      5.9     5.5     93
    24     6  2020    95    2      263.5     0.1      0.0    0.0    0.1    0.0      0.0      0.0   -9.90      0.4      0.1    28      5.1      5.0    99      5.4     5.1     94
    25     6  2020    96    2      258.3     0.0      0.0    0.0    0.0    0.0      0.0      0.0   -9.90      0.4      0.0     2      5.8      5.2    89      6.2     5.2     83
    26     6  2020    97    2      257.4     4.3      0.0    0.0    4.3    0.0      0.0      0.0   -9.90      0.4      0.4   100      5.3      4.8    91      5.7     5.2     92
    27     6  2020    98    2      252.3     0.4      0.0    0.0    0.4    0.0      0.0      0.0   -9.90      0.5      0.4    83      6.4      5.1    81      6.9     5.5     81
    28     6  2020    99    2      247.9     0.3      0.0    0.0    0.3    0.0      0.0      0.0   -9.90      0.4      0.3    74      5.4      4.4    81      5.8     4.7     81
    29     6  2020   100    2      247.9     4.2      0.0    0.0    4.2    0.0      0.0      0.0   -9.90      0.3      0.3   100      4.4      3.8    86      4.8     4.2     87
    30     6  2020   101    2      243.0     0.0      0.0    0.0    0.0    0.0      0.0      0.0   -9.90      0.5      0.5   100      6.0      4.4    73      6.5     4.9     75
     1     7  2020   102    2      249.2    11.5      0.0    0.0   11.5    0.0      0.0      0.0   -9.90      0.4      0.4   100      5.0      5.0   100      5.3     5.3    100
     2     7  2020   103    2      246.1     0.9      0.0    0.0    0.9    0.0      0.0      0.0   -9.90      0.3      0.3   100      4.3      3.6    86      4.6     4.0     87
     3     7  2020   104    2      242.1     0.0      0.0    0.0    0.0    0.0      0.0      0.0   -9.90      0.4      0.4   100      4.7      3.7    79      5.0     4.0     81
     4     7  2020   105    2      237.7     0.0      0.0    0.0    0.0    0.0      0.0      0.0   -9.90      0.5      0.2    52      6.0      4.1    69      6.4     4.3     68
     5     7  2020   106    2      236.1     3.0      0.0    0.0    3.0    0.0      0.0      0.0   -9.90      0.5      0.5   100      6.2      4.1    66      6.7     4.6     69
     6     7  2020   107    2      232.3     0.0      0.0    0.0    0.0    0.0      0.0      0.0   -9.90      0.4      0.4   100      5.2      3.5    67      5.6     3.9     69
     7     7  2020   108    2      229.6     0.8      0.0    0.0    0.8    0.0      0.0      0.0   -9.90      0.4      0.4   100      4.6      3.1    66      5.0     3.4     69
     8     7  2020   109    2      228.8     1.3      0.0    0.0    1.3    0.0      0.0      0.0   -9.90      0.2      0.2   100      2.6      2.0    75      2.8     2.2     77
     9     7  2020   110    2      233.0     8.1      0.0    0.0    8.1    0.0      0.0      0.0   -9.90      0.3      0.3   100      3.6      3.6   100      3.9     3.9    100
    10     7  2020   111    2      229.6     0.2      0.0    0.0    0.2    0.0      0.0      0.0   -9.90      0.4      0.2    50      5.3      3.4    63      5.7     3.6     62
    11     7  2020   112    2      226.9     0.0      0.0    0.0    0.0    0.0      0.0      0.0   -9.90      0.3      0.0     3      4.1      2.7    66      4.4     2.7     61
    12     7  2020   113    2      224.2     0.0      0.0    0.0    0.0    0.0      0.0      0.0   -9.90      0.4      0.0     3      4.4      2.7    62      4.7     2.7     57
    13     7  2020   114    2      221.5     0.0      0.0    0.0    0.0    0.0      0.0      0.0   -9.90      0.4      0.0     3      4.7      2.7    57      5.1     2.7     53
    14     7  2020   115    2      218.5     0.0      0.0    0.0    0.0    0.0      0.0      0.0   -9.90      0.5      0.0     3      6.0      3.0    50      6.5     3.0     46
    15     7  2020   116    2      231.4    15.7      0.0    0.0   15.7    0.0      0.0      0.0   -9.90      0.2      0.2   100      2.6      2.6   100      2.8     2.8    100
    16     7  2020   117    2      230.9     3.3      0.0    0.0    3.3    0.0      0.0      0.0   -9.90      0.3      0.3   100      3.5      3.5   100      3.8     3.8    100
    17     7  2020   118    2      227.4     0.1      0.0    0.0    0.1    0.0      0.0      0.0   -9.90      0.3      0.1    52      3.5      3.5   100      3.8     3.6     96
    18     7  2020   119    2      222.5     0.0      0.0    0.0    0.0    0.0      0.0      0.0   -9.90      0.4      0.1    15      4.8      4.8   100      5.2     4.9     94
    19     7  2020   120    2      219.9     1.3      0.0    0.0    1.3    0.0      0.0      0.0   -9.90      0.4      0.4   100      5.5      3.4    62      5.9     3.9     65
    20     7  2020   121    2      217.0     0.0      0.0    0.0    0.0    0.0      0.0      0.0   -9.90      0.4      0.4   100      4.8      2.5    53      5.2     2.9     56
    21     7  2020   122    2      214.3     0.0      0.0    0.0    0.0    0.0      0.0      0.0   -9.90      0.4      0.4   100      4.7      2.3    50      5.0     2.7     54
    22     7  2020   123    2      212.6     0.8      0.0    0.0    0.8    0.0      0.0      0.0   -9.90      0.4      0.4   100      4.2      2.1    50      4.6     2.5     54
    23     7  2020   124    2      210.4     0.0      0.0    0.0    0.0    0.0      0.0      0.0   -9.90      0.3      0.3   100      3.8      1.9    49      4.2     2.2     53
    24     7  2020   125    2      207.8     0.0      0.0    0.0    0.0    0.0      0.0      0.0   -9.90      0.6      0.1    16      6.1      2.4    40      6.7     2.5     38
    25     7  2020   126    2      205.9     0.0      0.0    0.0    0.0    0.0      0.0      0.0   -9.90      0.4      0.0     2      4.5      1.9    42      5.0     1.9     38
    26     7  2020   127    2      205.9     1.8      0.0    0.0    1.8    0.0      0.0      0.0   -9.90      0.3      0.3   100      3.3      1.5    45      3.7     1.9     51
    27     7  2020   128    3      203.7     0.0      0.0    0.0    0.0    0.0      0.0      0.0   -9.90      0.5      0.5   100      4.3      1.7    40      4.8     2.2     46
    28     7  2020   129    3      201.1     0.0      0.0    0.0    0.0    0.0      0.0      0.0   -9.90      0.6      0.6   100      5.7      1.9    34      6.3     2.6     41
    29     7  2020   130    3      199.1     0.0      0.0    0.0    0.0    0.0      0.0      0.0   -9.90      0.6      0.4    60      4.9      1.6    34      5.5     2.0     36
    30     7  2020   131    3      197.6     0.0      0.0    0.0    0.0    0.0      0.0      0.0   -9.90      0.6      0.0     2      4.5      1.5    33      5.0     1.5     29
    31     7  2020   132    3      196.2     0.0      0.0    0.0    0.0    0.0      0.0      0.0   -9.90      0.6      0.0     2      4.4      1.4    32      5.0     1.4     28
     1     8  2020   133    3      194.7     0.0      0.0    0.0    0.0    0.0      0.0      0.0   -9.90      0.8      0.0     2      5.5      1.5    27      6.3     1.5     24
     2     8  2020   134    3      195.0     1.8      0.0    0.0    1.8    0.0      0.0      0.0   -9.90      0.5      0.5   100      3.1      1.0    33      3.6     1.5     42
     3     8  2020   135    3      193.5     0.0      0.0    0.0    0.0    0.0      0.0      0.0   -9.90      0.5      0.5   100      3.1      1.0    31      3.7     1.5     41
     4     8  2020   136    3      192.0     0.0      0.0    0.0    0.0    0.0      0.0      0.0   -9.90      0.6      0.6   100      3.3      1.0    29      3.9     1.5     39
     5     8  2020   137    3      190.6     0.0      0.0    0.0    0.0    0.0      0.0      0.0   -9.90      0.8      0.2    30      4.4      1.1    25      5.2     1.3     26
     6     8  2020   138    3      189.5     0.0      0.0    0.0    0.0    0.0      0.0      0.0   -9.90      1.0      0.0     2      4.8      1.1    23      5.8     1.1     19
     7     8  2020   139    3      188.5     0.0      0.0    0.0    0.0    0.0      0.0      0.0   -9.90      1.0      0.0     2      4.4      1.0    23      5.4     1.0     19
     8     8  2020   140    3      187.4     0.0      0.0    0.0    0.0    0.0      0.0      0.0   -9.90      1.1      0.0     2      4.6      1.0    21      5.8     1.0     18
     9     8  2020   141    3      186.5     0.0      0.0    0.0    0.0    0.0      0.0      0.0   -9.90      1.3      0.0     2      4.7      1.0    20      6.0     1.0     16
    10     8  2020   142    3      186.7     1.7      0.0    0.0    1.7    0.0      0.0      0.0   -9.90      0.8      0.8   100      2.7      0.7    24      3.5     1.5     42
    11     8  2020   143    4      185.0     0.0      0.0    0.0    0.0    0.0      0.0      0.0   -9.90      1.3      0.9    68      4.1      0.8    20      5.4     1.7     32
    12     8  2020   144    4      184.2     0.0      0.0    0.0    0.0    0.0      0.0      0.0   -9.90      1.3      0.0     2      3.7      0.7    20      5.0     0.7     15
    13     8  2020   145    4      183.6     0.2      0.0    0.0    0.2    0.0      0.0      0.0   -9.90      1.2      0.2    18      3.0      0.6    20      4.2     0.8     20
    14     8  2020   146    4      183.1     0.3      0.0    0.0    0.3    0.0      0.0      0.0   -9.90      1.0      0.3    30      2.3      0.5    21      3.3     0.8     24
    15     8  2020   147    4      182.6     0.0      0.0    0.0    0.0    0.0      0.0      0.0   -9.90      1.2      0.0     2      2.2      0.5    21      3.4     0.5     14
    16     8  2020   148    4      182.1     0.0      0.0    0.0    0.0    0.0      0.0      0.0   -9.90      1.7      0.0     2      2.8      0.5    18      4.5     0.5     12
    17     8  2020   149    4      181.6     1.5      0.0    0.0    1.5    0.0      0.0      0.0   -9.90      1.9      1.5    81      2.6      0.5    18      4.5     2.0     44
    18     8  2020   150    4      182.1     2.0      0.0    0.0    2.0    0.0      0.0      0.0   -9.90      1.2      1.2   100      1.4      0.3    22      2.6     1.5     57
    19     8  2020   151    4      181.0     0.0      0.0    0.0    0.0    0.0      0.0      0.0   -9.90      1.5      0.8    55      1.5      0.3    20      3.0     1.1     37
    20     8  2020   152    4      180.6     0.0      0.0    0.0    0.0    0.0      0.0      0.0   -9.90      2.2      0.0     2      1.8      0.3    18      3.9     0.4      9
    21     8  2020   153    4      180.3     1.5      0.0    0.0    1.5    0.0      0.0      0.0   -9.90      3.2      1.5    48      2.1      0.3    15      5.3     1.9     35
    22     8  2020   154    4      184.0     5.6      0.0    0.0    5.6    0.0      0.0      0.0   -9.90      1.6      1.6   100      0.9      0.2    27      2.5     1.9     74
    23     8  2020   155    4      183.8     0.1      0.0    0.0    0.1    0.0      0.0      0.0   -9.90      2.1      0.2     8      0.9      0.2    22      3.0     0.4     12
    24     8  2020   156    4      183.5     0.0      0.0    0.0    0.0    0.0      0.0      0.0   -9.90      2.3      0.1     3      0.7      0.2    22      3.0     0.2      8
    25     8  2020   157    4      183.3     0.1      0.0    0.0    0.1    0.0      0.0      0.0   -9.90      2.4      0.2     7      0.5      0.1    22      3.0     0.3     10
    26     8  2020   158    4      183.2     2.5      0.0    0.0    2.5    0.0      0.0      0.0   -9.90      2.8      2.5    91      0.5      0.1    21      3.2     2.6     81
    27     8  2020   159    4      183.1     0.7      0.0    0.0    0.7    0.0      0.0      0.0   -9.90      2.3      0.7    32      0.3      0.1    22      2.6     0.8     31
    28     8  2020   160    4      183.4     2.4      0.0    0.0    2.4    0.0      0.0      0.0   -9.90      2.1      2.1   100      0.1      0.0    23      2.3     2.2     95
    29     8  2020   161    4      183.0     0.0      0.0    0.0    0.0    0.0      0.0      0.0   -9.90      2.4      0.3    14      0.1      0.0    22      2.4     0.3     14
    30     8  2020   162    4      203.9    22.6      0.0    0.0   22.6    0.0      0.0      0.0   -9.90      1.6      1.6   100      0.0      0.0   100      1.7     1.7    100
    31     8  2020   163    4      203.8     1.5      0.0    0.0    1.5    0.0      0.0      0.0   -9.90      1.6      1.6   100      0.0      0.0   100      1.7     1.7    100
     1     9  2020   164    4      202.5     0.0      0.0    0.0    0.0    0.0      0.0      0.0   -9.90      1.4      1.2    84      0.0      0.0   100      1.5     1.2     84
     2     9  2020   165    4      202.7     1.5      0.0    0.0    1.5    0.0      0.0      0.0   -9.90      1.3      1.3   100      0.0      0.0   100      1.3     1.3    100
     3     9  2020   166    4      207.6     7.1      0.0    0.0    7.1    0.0      0.0      0.0   -9.90      2.1      2.1   100      0.0      0.0   100      2.2     2.2    100
     4     9  2020   167    4      206.5     0.3      0.0    0.0    0.3    0.0      0.0      0.0   -9.90      1.5      1.4    96      0.0      0.0   100      1.5     1.5     96
     5     9  2020   168    4      205.5     0.0      0.0    0.0    0.0    0.0      0.0      0.0   -9.90      1.1      0.9    82      0.0      0.0   100      1.2     0.9     82
     6     9  2020   169    4      204.3     0.0      0.0    0.0    0.0    0.0      0.0      0.0   -9.90      1.6      1.2    71      0.0      0.0   100      1.7     1.2     72
     7     9  2020   170    4      203.3     0.0      0.0    0.0    0.0    0.0      0.0      0.0   -9.90      1.7      1.0    61      0.0      0.0   100      1.7     1.1     62
     8     9  2020   171    4      202.1     0.0      0.0    0.0    0.0    0.0      0.0      0.0   -9.90      2.3      1.2    52      0.0      0.0   100      2.3     1.2     53
     9     9  2020   172    4      200.9     0.3      0.0    0.0    0.3    0.0      0.0      0.0   -9.90      2.3      1.4    59      0.0      0.0   100      2.4     1.4     60
    10     9  2020   173    4      200.2     0.0      0.0    0.0    0.0    0.0      0.0      0.0   -9.90      1.6      0.8    46      0.0      0.0   100      1.7     0.8     47
    11     9  2020   174    4      199.4     0.0      0.0    0.0    0.0    0.0      0.0      0.0   -9.90      1.8      0.7    41      0.0      0.0   100      1.8     0.8     42
    12     9  2020   175    4      198.5     0.0      0.0    0.0    0.0    0.0      0.0      0.0   -9.90      2.4      0.9    37      0.0      0.0   100      2.4     0.9     38
    13     9  2020   176    4      197.9     0.0      0.0    0.0    0.0    0.0      0.0      0.0   -9.90      1.8      0.6    33      0.0      0.0   100      1.8     0.6     34
    14     9  2020   177    4      197.2     0.0      0.0    0.0    0.0    0.0      0.0      0.0   -9.90      2.2      0.6    30      0.0      0.0   100      2.2     0.7     31
    15     9  2020   178    4      196.4     0.0      0.0    0.0    0.0    0.0      0.0      0.0   -9.90      2.6      0.7    27      0.0      0.0   100      2.7     0.7     28
    16     9  2020   179    4      195.8     0.0      0.0    0.0    0.0    0.0      0.0      0.0   -9.90      2.4      0.6    24      0.0      0.0   100      2.4     0.6     25
    17     9  2020   180    4      195.4     0.0      0.0    0.0    0.0    0.0      0.0      0.0   -9.90      1.6      0.4    22      0.0      0.0   100      1.7     0.4     23
    18     9  2020   181    4      195.1     0.0      0.0    0.0    0.0    0.0      0.0      0.0   -9.90      1.4      0.3    21      0.0      0.0   100      1.5     0.3     22
    19     9  2020   182    4      194.7     0.0      0.0    0.0    0.0    0.0      0.0      0.0   -9.90      1.8      0.4    20      0.0      0.0   100      1.8     0.4     21
    20     9  2020   183    4      194.3     0.0      0.0    0.0    0.0    0.0      0.0      0.0   -9.90      1.9      0.4    19      0.0      0.0   100      2.0     0.4     20
    21     9  2020   184    4      194.0     0.0      0.0    0.0    0.0    0.0      0.0      0.0   -9.90      1.8      0.3    18      0.0      0.0   100      1.8     0.3     19
    22     9  2020   185    4      193.6     0.0      0.0    0.0    0.0    0.0      0.0      0.0   -9.90      2.0      0.3    17      0.0      0.0   100      2.0     0.4     18
    23     9  2020   186    4      193.3     0.0      0.0    0.0    0.0    0.0      0.0      0.0   -9.90      1.9      0.3    16      0.0      0.0   100      2.0     0.3     17
    24     9  2020   187    4      197.6     6.2      0.0    0.0    6.2    0.0      0.0      0.0   -9.90      1.9      1.9   100      0.0      0.0   100      1.9     1.9    100
    25     9  2020   188    4      203.8     6.9      0.0    0.0    6.9    0.0      0.0      0.0   -9.90      0.8      0.8   100      0.0      0.0   100      0.8     0.8    100
    26     9  2020   189    4      219.3    17.1      0.0    0.0   16.2    0.9      0.0      0.0   -9.90      0.6      0.6   100      0.0      0.0   100      0.6     0.6    100
    27     9  2020   190    4      218.6     0.0      0.0    0.0    0.0    0.0      0.0      0.0   -9.90      0.8      0.8   100      0.0      0.0   100      0.8     0.8    100
    28     9  2020   191    4      217.4     0.0      0.0    0.0    0.0    0.0      0.0      0.0   -9.90      1.2      1.2   100      0.0      0.0   100      1.2     1.2    100
    29     9  2020   192    4      216.4     0.0      0.0    0.0    0.0    0.0      0.0      0.0   -9.90      0.9      0.9   100      0.0      0.0   100      0.9     0.9    100
    30     9  2020   193    4      215.4     0.0      0.0    0.0    0.0    0.0      0.0      0.0   -9.90      1.0      1.0   100      0.0      0.0   100      1.0     1.0    100
     1    10  2020   194    4      214.7     0.0      0.0    0.0    0.0    0.0      0.0      0.0   -9.90      0.8      0.8   100      0.0      0.0   100      0.8     0.8    100
     2    10  2020   195    4      213.8     0.0      0.0    0.0    0.0    0.0      0.0      0.0   -9.90      0.9      0.9   100      0.0      0.0   100      0.9     0.9    100
     3    10  2020   196    4      212.6     0.1      0.0    0.0    0.1    0.0      0.0      0.0   -9.90      1.4      1.3    93      0.0      0.0   100      1.4     1.3     93
     4    10  2020   197    4      211.7     0.0      0.0    0.0    0.0    0.0      0.0      0.0   -9.90      1.1      0.9    81      0.0      0.0   100      1.1     0.9     81

** Run number:  2
   Day Month  Year   DAP Stage     WCTot    Rain     Irri   Surf   Infilt   RO    Drain       CR    Zgwt       Ex       E     E/Ex    Trx       Tr  Tr/Trx    ETx      ET   ET/ETx
                                      mm      mm       mm     mm     mm     mm       mm       mm      m        mm       mm     %       mm       mm    %        mm      mm      %
    22     3  2021     1    1      463.4     0.3      0.0    0.0    0.3    0.0      0.0      0.0   -9.90      2.0      1.9    94      0.0      0.0   100      2.0     1.9     94
    23     3  2021     2    1      462.4     0.0      0.0    0.0    0.0    0.0      0.0      0.0   -9.90      1.3      1.1    80      0.0      0.0   100      1.3     1.1     80
    24     3  2021     3    1      460.9     0.0      0.0    0.0    0.0    0.0      0.0      0.0   -9.90      2.1      1.5    70      0.0      0.0   100      2.1     1.5     70
    25     3  2021     4    1      459.6     0.0      0.0    0.0    0.0    0.0      0.0      0.0   -9.90      2.2      1.3    60      0.0      0.0   100      2.2     1.3     60
    26     3  2021     5    1      458.5     0.0      0.0    0.0    0.0    0.0      0.0      0.0   -9.90      2.2      1.2    52      0.0      0.0   100      2.2     1.2     52
    27     3  2021     6    1      458.2     2.1      0.0    0.0    2.1    0.0      0.0      0.0   -9.90      2.3      2.3   100      0.0      0.0   100      2.3     2.3    100
    28     3  2021     7    1      456.1     0.0      0.0    0.0    0.0    0.0      0.0      0.0   -9.90      2.5      2.2    86      0.0      0.0   100      2.5     2.2     86
    29     3  2021     8    1      453.6     0.0      0.0    0.0    0.0    0.0      0.0      0.0   -9.90      3.9      2.4    63      0.0      0.0   100      3.9     2.4     63
    30     3  2021     9    1      451.9     0.0      0.0    0.0    0.0    0.0      0.0      0.0   -9.90      3.6      1.7    48      0.0      0.0   100      3.6     1.7     48
    31     3  2021    10    1      450.6     0.0      0.0    0.0    0.0    0.0      0.0      0.0   -9.90      3.3      1.3    39      0.0      0.0   100      3.3     1.3     39
     1     4  2021    11    1      449.6     0.0      0.0    0.0    0.0    0.0      0.0      0.0   -9.90      3.1      1.0    33      0.0      0.0   100      3.1     1.0     33
     2     4  2021    12    1      448.8     0.2      0.0    0.0    0.2    0.0      0.0      0.0   -9.90      2.4      1.0    43      0.0      0.0   100      2.4     1.0     43
     3     4  2021    13    1      448.1     0.0      0.0    0.0    0.0    0.0      0.0      0.0   -9.90      2.1      0.7    33      0.0      0.0   100      2.1     0.7     33
     4     4  2021    14    2      447.4     0.0      0.0    0.0    0.0    0.0      0.0      0.0   -9.90      2.2      0.7    30      0.0      0.0   100      2.3     0.7     31
     5     4  2021    15    2      449.0     3.3      0.0    0.0    3.3    0.0      0.0      0.0   -9.90      1.6      1.6   100      0.0      0.0   100      1.7     1.7    100
     6     4  2021    16    2      448.6     0.4      0.0    0.0    0.4    0.0      0.0      0.0   -9.90      1.6      0.8    51      0.0      0.0   100      1.6     0.8     52
     7     4  2021    17    2      448.2     0.6      0.0    0.0    0.6    0.0      0.0      0.0   -9.90      1.7      1.0    57      0.0      0.0   100      1.7     1.0     57
     8     4  2021    18    2      447.5     0.0      0.0    0.0    0.0    0.0      0.0      0.0   -9.90      2.0      0.6    31      0.1      0.1   100      2.1     0.7     33
     9     4  2021    19    2      447.5     3.2      0.0    0.0    3.2    0.0      0.0      0.0   -9.90      2.9      2.9   100      0.3      0.3   100      3.2     3.2    100
    10     4  2021    20    2      447.9     1.7      0.0    0.0    1.7    0.0      0.0      0.0   -9.90      1.3      1.3   100      0.0      0.0   100      1.4     1.4    100
    11     4  2021    21    2      447.0     2.2      0.0    0.0    2.2    0.0      0.0      0.0   -9.90      3.2      2.5    78      0.6      0.6   100      3.8     3.1     81
    12     4  2021    22    2      446.6     0.1      0.0    0.0    0.1    0.0      0.0      0.0   -9.90      1.6      0.5    31      0.0      0.0   100      1.6     0.5     32
    13     4  2021    23    2      446.1     0.0      0.0    0.0    0.0    0.0      0.0      0.0   -9.90      1.8      0.4    24      0.1      0.1   100      1.9     0.5     27
    14     4  2021    24    2      445.6     0.0      0.0    0.0    0.0    0.0      0.0      0.0   -9.90      1.7      0.4    23      0.0      0.0   100      1.7     0.4     25
    15     4  2021    25    2      445.5     0.9      0.0    0.0    0.9    0.0      0.0      0.0   -9.90      1.5      1.0    68      0.0      0.0   100      1.5     1.0     69
    16     4  2021    26    2      444.8     0.0      0.0    0.0    0.0    0.0      0.0      0.0   -9.90      1.9      0.4    21      0.3      0.3   100      2.2     0.7     30
    17     4  2021    27    2      444.2     0.2      0.0    0.0    0.2    0.0      0.0      0.0   -9.90      1.8      0.5    28      0.3      0.3   100      2.1     0.8     39
    18     4  2021    28    2      450.2     7.6      0.0    0.0    7.6    0.0      0.0      0.0   -9.90      1.5      1.5   100      0.2      0.2   100      1.6     1.6    100
    19     4  2021    29    2      451.4     3.1      0.0    0.0    3.1    0.0      0.0      0.0   -9.90      1.6      1.6   100      0.3      0.3   100      1.9     1.9    100
    20     4  2021    30    2      449.0     0.0      0.0    0.0    0.0    0.0      0.0      0.0   -9.90      2.2      1.8    82      0.6      0.6   100      2.8     2.4     86
    21     4  2021    31    2      447.2     0.0      0.0    0.0    0.0    0.0      0.0      0.0   -9.90      2.9      1.0    35      0.8      0.8   100      3.6     1.8     49
    22     4  2021    32    2      446.2     0.8      0.0    0.0    0.8    0.0      0.0      0.0   -9.90      2.5      1.3    51      0.5      0.5   100      3.0     1.8     59
    23     4  2021    33    2      445.1     0.0      0.0    0.0    0.0    0.0      0.0      0.0   -9.90      2.5      0.6    24      0.5      0.5   100      3.1     1.1     37
    24     4  2021    34    2      444.4     0.0      0.0    0.0    0.0    0.0      0.0      0.0   -9.90      2.1      0.4    20      0.3      0.3   100      2.4     0.7     30
    25     4  2021    35    2      444.0     0.2      0.0    0.0    0.2    0.0      0.0      0.0   -9.90      1.8      0.5    27      0.1      0.1   100      1.9     0.6     31
    26     4  2021    36    2      443.6     0.0      0.0    0.0    0.0    0.0      0.0      0.0   -9.90      1.9      0.3    17      0.0      0.0   100      1.9     0.4     19
    27     4  2021    37    2      443.1     0.0      0.0    0.0    0.0    0.0      0.0      0.0   -9.90      2.4      0.4    16      0.2      0.2   100      2.5     0.5     22
    28     4  2021    38    2      441.9     1.0      0.0    0.0    1.0    0.0      0.0      0.0   -9.90      2.9      1.3    45      0.9      0.9   100      3.8     2.2     58
    29     4  2021    39    2      442.9     4.3      0.0    0.0    4.3    0.0      0.0      0.0   -9.90      2.2      2.2   100      1.1      1.1   100      3.3     3.3    100
    30     4  2021    40    2      440.8     0.0      0.0    0.0    0.0    0.0      0.0      0.0   -9.90      1.4      1.4   100      0.6      0.6   100      2.0     2.0    100
     1     5  2021    41    2      439.1     0.0      0.0    0.0    0.0    0.0      0.0      0.0   -9.90      1.7      0.8    46      0.9      0.9   100      2.6     1.7     64
     2     5  2021    42    2      442.9     5.2      0.0    0.0    5.2    0.0      0.0      0.0   -9.90      1.0      1.0   100      0.4      0.4   100      1.4     1.4    100
     3     5  2021    43    2      440.5     0.0      0.0    0.0    0.0    0.0      0.0      0.0   -9.90      1.7      1.7   100      0.7      0.7   100      2.4     2.4    100
     4     5  2021    44    2      438.8     1.8      0.0    0.0    1.8    0.0      0.0      0.0   -9.90      2.3      1.9    82      1.6      1.6   100      3.8     3.4     90
     5     5  2021    45    2      437.5     0.5      0.0    0.0    0.5    0.0      0.0      0.0   -9.90      1.8      0.7    36      1.2      1.2   100      3.0     1.8     61
     6     5  2021    46    2      437.0     1.6      0.0    0.0    1.6    0.0      0.0      0.0   -9.90      1.4      1.4   100      0.7      0.7   100      2.1     2.1    100
     7     5  2021    47    2      440.5     4.9      0.0    0.0    4.9    0.0      0.0      0.0   -9.90      1.0      1.0   100      0.4      0.4   100      1.4     1.4    100
     8     5  2021    48    2      437.7     0.0      0.0    0.0    0.0    0.0      0.0      0.0   -9.90      1.8      1.8   100      1.0      1.0   100      2.8     2.8    100
     9     5  2021    49    2      431.8     0.0      0.0    0.0    0.0    0.0      0.0      0.0   -9.90      3.2      2.2    69      3.7      3.7   100      6.9     5.9     86
    10     5  2021    50    2      427.6     0.0      0.0    0.0    0.0    0.0      0.0      0.0   -9.90      3.2      0.2     6      4.0      4.0   100      7.2     4.2     59
    11     5  2021    51    2      424.2     1.3      0.0    0.0    1.3    0.0      0.0      0.0   -9.90      2.4      1.3    56      3.4      3.4   100      5.8     4.7     81
    12     5  2021    52    2      432.7    10.3      0.0    0.0   10.3    0.0      0.0      0.0   -9.90      0.7      0.7   100      1.0      1.0   100      1.7     1.7    100
    13     5  2021    53    2      438.5     6.8      0.0    0.0    6.8    0.0      0.0      0.0   -9.90      0.4      0.4   100      0.6      0.6   100      1.0     1.0    100
    14     5  2021    54    2      436.9     0.6      0.0    0.0    0.6    0.0      0.0      0.0   -9.90      1.0      0.7    72      1.5      1.5   100      2.5     2.2     89
    15     5  2021    55    2      434.2     0.0      0.0    0.0    0.0    0.0      0.0      0.0   -9.90      1.3      0.3    23      2.4      2.4   100      3.8     2.7     72
    16     5  2021    56    2      431.6     0.0      0.0    0.0    0.0    0.0      0.0      0.0   -9.90      1.2      0.2    15      2.4      2.4   100      3.6     2.6     73
    17     5  2021    57    2      429.1     1.0      0.0    0.0    1.0    0.0      0.0      0.0   -9.90      1.1      1.0    92      2.5      2.5   100      3.6     3.5     97
    18     5  2021    58    2      426.9     0.0      0.0    0.0    0.0    0.0      0.0      0.0   -9.90      0.9      0.1     6      2.1      2.1   100      3.0     2.1     72
    19     5  2021    59    2      424.1     0.0      0.0    0.0    0.0    0.0      0.0      0.0   -9.90      1.1      0.0     4      2.8      2.8   100      3.9     2.8     73
    20     5  2021    60    2      421.1     0.0      0.0    0.0    0.0    0.0      0.0      0.0   -9.90      1.0      0.0     3      2.9      2.9   100      4.0     3.0     75
    21     5  2021    61    2      416.7     0.1      0.0    0.0    0.1    0.0      0.0      0.0   -9.90      1.4      0.1    10      4.4      4.4   100      5.8     4.5     79
    22     5  2021    62    2      413.3     0.1      0.0    0.0    0.1    0.0      0.0      0.0   -9.90      1.0      0.1    13      3.4      3.4   100      4.4     3.5     80
    23     5  2021    63    2      410.5     0.7      0.0    0.0    0.7    0.0      0.0      0.0   -9.90      0.8      0.7    88      2.8      2.8   100      3.6     3.5     97
    24     5  2021    64    2      406.6     0.5      0.0    0.0    0.5    0.0      0.0      0.0   -9.90      1.0      0.5    49      3.9      3.9   100      5.0     4.4     89
    25     5  2021    65    2      404.9     1.8      0.0    0.0    1.8    0.0      0.0      0.0   -9.90      0.7      0.7   100      2.8      2.8   100      3.4     3.4    100
    26     5  2021    66    2      405.5     3.3      0.0    0.0    3.3    0.0      0.0      0.0   -9.90      0.5      0.5   100      2.2      2.2   100      2.7     2.7    100
    27     5  2021    67    2      409.1     6.4      0.0    0.0    6.4    0.0      0.0      0.0   -9.90      0.5      0.5   100      2.3      2.3   100      2.8     2.8    100
    28     5  2021    68    2      406.7     0.2      0.0    0.0    0.2    0.0      0.0      0.0   -9.90      0.5      0.2    42      2.4      2.4   100      2.9     2.6     89
    29     5  2021    69    2      404.1     0.0      0.0    0.0    0.0    0.0      0.0      0.0   -9.90      0.6      0.0     3      2.6      2.6   100      3.2     2.6     83
    30     5  2021    70    2      400.4     0.0      0.0    0.0    0.0    0.0      0.0      0.0   -9.90      0.7      0.0     2      3.7      3.7   100      4.4     3.7     84
    31     5  2021    71    2      396.5     0.0      0.0    0.0    0.0    0.0      0.0      0.0   -9.90      0.7      0.0     2      3.9      3.9   100      4.6     3.9     85
     1     6  2021    72    2      391.5     0.0      0.0    0.0    0.0    0.0      0.0      0.0   -9.90      0.8      0.0     2      5.0      5.0   100      5.8     5.0     87
     2     6  2021    73    2      387.2     1.0      0.0    0.0    1.0    0.0      0.0      0.0   -9.90      0.7      0.7   100      4.6      4.6   100      5.3     5.3    100
     3     6  2021    74    2      381.1     0.3      0.0    0.0    0.3    0.0      0.0      0.0   -9.90      0.9      0.3    37      6.0      6.0   100      6.9     6.3     92
     4     6  2021    75    2      376.7     0.5      0.0    0.0    0.5    0.0      0.0      0.0   -9.90      0.6      0.5    85      4.4      4.4   100      5.0     4.9     98
     5     6  2021    76    2      371.2     0.0      0.0    0.0    0.0    0.0      0.0      0.0   -9.90      0.7      0.0     2      5.5      5.5   100      6.2     5.5     89
     6     6  2021    77    2      365.8     0.0      0.0    0.0    0.0    0.0      0.0      0.0   -9.90      0.7      0.0     2      5.4      5.4   100      6.1     5.4     89
     7     6  2021    78    2      360.2     0.0      0.0    0.0    0.0    0.0      0.0      0.0   -9.90      0.6      0.0     2      5.6      5.6   100      6.2     5.6     90
     8     6  2021    79    2      354.8     0.0      0.0    0.0    0.0    0.0      0.0      0.0   -9.90      0.6      0.0     2      5.4      5.4   100      6.0     5.4     90
     9     6  2021    80    2      349.6     0.0      0.0    0.0    0.0    0.0      0.0      0.0   -9.90      0.6      0.0     2      5.2      5.2   100      5.8     5.2     91
    10     6  2021    81    2      344.1     0.0      0.0    0.0    0.0    0.0      0.0      0.0   -9.90      0.5      0.0     2      5.4      5.4   100      6.0     5.4     91
    11     6  2021    82    2      338.5     0.0      0.0    0.0    0.0    0.0      0.0      0.0   -9.90      0.5      0.0     2      5.6      5.6   100      6.1     5.6     91
    12     6  2021    83    2      336.1     2.4      0.0    0.0    2.4    0.0      0.0      0.0   -9.90      0.4      0.4   100      4.5      4.5   100      4.9     4.9    100
    13     6  2021    84    2      331.4     0.0      0.0    0.0    0.0    0.0      0.0      0.0   -9.90      0.4      0.4   100      4.3      4.3   100      4.7     4.7    100
    14     6  2021    85    2      325.4     0.0      0.0    0.0    0.0    0.0      0.0      0.0   -9.90      0.5      0.5   100      5.5      5.5   100      6.0     6.0    100
    15     6  2021    86    2      320.2     0.0      0.0    0.0    0.0    0.0      0.0      0.0   -9.90      0.4      0.4   100      4.8      4.8   100      5.2     5.2    100
    16     6  2021    87    2      313.4     0.0      0.0    0.0    0.0    0.0      0.0      0.0   -9.90      0.5      0.5   100      6.2      6.2   100      6.7     6.7    100
    17     6  2021    88    2      305.0     0.0      0.0    0.0    0.0    0.0      0.0      0.0   -9.90      0.6      0.2    37      8.2      8.2   100      8.8     8.4     95
    18     6  2021    89    2      296.3     0.0      0.0    0.0    0.0    0.0      0.0      0.0   -9.90      0.7      0.0     2      8.7      8.7   100      9.4     8.7     93
    19     6  2021    90    2      288.8     0.0      0.0    0.0    0.0    0.0      0.0      0.0   -9.90      0.6      0.0     2      7.6      7.6   100      8.2     7.6     93
    20     6  2021    91    2      281.5     0.0      0.0    0.0    0.0    0.0      0.0      0.0   -9.90      0.6      0.0     2      7.3      7.3   100      7.8     7.3     93
    21     6  2021    92    2      274.9     0.0      0.0    0.0    0.0    0.0      0.0      0.0   -9.90      0.5      0.0     2      6.7      6.6    99      7.2     6.6     92
    22     6  2021    93    2      271.3     0.2      0.0    0.0    0.2    0.0      0.0      0.0   -9.90      0.3      0.2    72      3.6      3.6   100      3.9     3.8     98
    23     6  2021    94    2      268.2     1.2      0.0    0.0    1.2    0.0      0.0      0.0   -9.90      0.3      0.3   100      3.9      3.9   100      4.2     4.2    100
    24     6  2021    95    2      266.6     2.1      0.0    0.0    2.1    0.0      0.0      0.0   -9.90      0.3      0.3   100      3.4      3.4   100      3.7     3.7    100
    25     6  2021    96    2      262.2     0.0      0.0    0.0    0.0    0.0      0.0      0.0   -9.90      0.3      0.3   100      4.1      4.1   100      4.5     4.5    100
    26     6  2021    97    2      256.9     0.0      0.0    0.0    0.0    0.0      0.0      0.0   -9.90      0.4      0.4   100      5.4      4.8    90      5.8     5.2     91
    27     6  2021    98    2      251.7     0.0      0.0    0.0    0.0    0.0      0.0      0.0   -9.90      0.4      0.4   100      5.8      4.8    83      6.2     5.2     84
    28     6  2021    99    2      246.2     0.0      0.0    0.0    0.0    0.0      0.0      0.0   -9.90      0.5      0.5   100      6.9      5.0    73      7.4     5.5     75
    29     6  2021   100    2      255.9    15.4      0.0    0.0   15.4    0.0      0.0      0.0   -9.90      0.4      0.4   100      5.3      5.3   100      5.7     5.7    100
    30     6  2021   101    2      278.1    25.2      0.0    0.0   24.5    0.7      0.0      0.0   -9.90      0.2      0.2   100      2.2      2.2   100      2.4     2.4    100
     1     7  2021   102    2      280.5     4.6      0.0    0.0    4.6    0.0      0.0      0.0   -9.90      0.1      0.1   100      2.0      2.0   100      2.2     2.2    100
     2     7  2021   103    2      275.8     0.0      0.0    0.0    0.0    0.0      0.0      0.0   -9.90      0.3      0.3   100      4.4      4.4   100      4.7     4.7    100
     3     7  2021   104    2      270.8     0.0      0.0    0.0    0.0    0.0      0.0      0.0   -9.90      0.3      0.3   100      4.7      4.7   100      5.0     5.0    100
     4     7  2021   105    2      265.2     0.0      0.0    0.0    0.0    0.0      0.0      0.0   -9.90      0.3      0.3   100      5.3      5.3   100      5.7     5.7    100
     5     7  2021   106    2      261.6     1.3      0.0    0.0    1.3    0.0      0.0      0.0   -9.90      0.3      0.3   100      4.6      4.6   100      4.9     4.9    100
     6     7  2021   107    2      266.1    10.8      0.0    0.0   10.8    0.0      0.0      0.0   -9.90      0.3      0.3   100      6.0      6.0   100      6.3     6.3    100
     7     7  2021   108    2      266.1     3.3      0.0    0.0    3.3    0.0      0.0      0.0   -9.90      0.2      0.2   100      3.1      3.1   100      3.3     3.3    100
     8     7  2021   109    2      278.1    15.3      0.0    0.0   15.2    0.1      0.0      0.0   -9.90      0.2      0.2   100      3.1      3.1   100      3.3     3.3    100
     9     7  2021   110    2      302.1    36.0      0.0    0.0   27.3    8.7      0.0      0.0   -9.90      0.2      0.2   100      3.1      3.1   100      3.3     3.3    100
    10     7  2021   111    2      297.4     0.0      0.0    0.0    0.0    0.0      0.0      0.0   -9.90      0.2      0.2   100      4.4      4.4   100      4.7     4.7    100
    11     7  2021   112    2      291.6     0.0      0.0    0.0    0.0    0.0      0.0      0.0   -9.90      0.3      0.3   100      5.6      5.6   100      5.9     5.9    100
    12     7  2021   113    2      287.1     0.0      0.0    0.0    0.0    0.0      0.0      0.0   -9.90      0.2      0.2   100      4.3      4.3   100      4.5     4.5    100
    13     7  2021   114    2      290.9    10.0      0.0    0.0   10.0    0.0      0.0      0.0   -9.90      0.3      0.3   100      5.9      5.9   100      6.2     6.2    100
    14     7  2021   115    2      286.9     0.0      0.0    0.0    0.0    0.0      0.0      0.0   -9.90      0.2      0.2   100      3.8      3.8   100      4.0     4.0    100
    15     7  2021   116    2      282.2     0.0      0.0    0.0    0.0    0.0      0.0      0.0   -9.90      0.2      0.2   100      4.5      4.5   100      4.7     4.7    100
    16     7  2021   117    2      282.9     5.8      0.0    0.0    5.8    0.0      0.0      0.0   -9.90      0.2      0.2   100      4.9      4.9   100      5.1     5.1    100
    17     7  2021   118    2      278.2     0.0      0.0    0.0    0.0    0.0      0.0      0.0   -9.90      0.2      0.2   100      4.5      4.5   100      4.7     4.7    100
    18     7  2021   119    2      273.0     0.0      0.0    0.0    0.0    0.0      0.0      0.0   -9.90      0.2      0.2   100      5.0      5.0   100      5.2     5.2    100
    19     7  2021   120    2      269.0     0.0      0.0    0.0    0.0    0.0      0.0      0.0   -9.90      0.2      0.2   100      3.9      3.9   100      4.0     4.0    100
    20     7  2021   121    2      265.2     0.0      0.0    0.0    0.0    0.0      0.0      0.0   -9.90      0.2      0.2   100      3.6      3.6   100      3.8     3.8    100
    21     7  2021   122    2      261.4     0.0      0.0    0.0    0.0    0.0      0.0      0.0   -9.90      0.2      0.2   100      3.6      3.6   100      3.8     3.8    100
    22     7  2021   123    2      257.7     0.0      0.0    0.0    0.0    0.0      0.0      0.0   -9.90      0.1      0.1   100      3.5      3.5   100      3.7     3.7    100
    23     7  2021   124    2      253.5     0.0      0.0    0.0    0.0    0.0      0.0      0.0   -9.90      0.2      0.2   100      4.2      4.0    95      4.3     4.1     95
    24     7  2021   125    2      248.4     0.0      0.0    0.0    0.0    0.0      0.0      0.0   -9.90      0.3      0.3   100      6.1      4.9    79      6.4     5.1     80
    25     7  2021   126    2      250.3     6.7      0.0    0.0    6.7    0.0      0.0      0.0   -9.90      0.2      0.2   100      5.4      4.6    84      5.6     4.8     85
    26     7  2021   127    2      246.2     0.2      0.0    0.0    0.2    0.0      0.0      0.0   -9.90      0.2      0.2    96      4.9      4.1    83      5.1     4.3     84
    27     7  2021   128    3      242.3     0.1      0.0    0.0    0.1    0.0      0.0      0.0   -9.90      0.2      0.1    48      5.0      3.9    79      5.2     4.0     77
    28     7  2021   129    3      239.1     0.1      0.0    0.0    0.1    0.0      0.0      0.0   -9.90      0.2      0.1    56      4.1      3.3    79      4.3     3.4     78
    29     7  2021   130    3      235.2     0.0      0.0    0.0    0.0    0.0      0.0      0.0   -9.90      0.2      0.0     3      5.6      3.8    69      5.8     3.8     66
    30     7  2021   131    3      231.7     0.0      0.0    0.0    0.0    0.0      0.0      0.0   -9.90      0.2      0.0     3      5.3      3.5    66      5.6     3.5     63
    31     7  2021   132    3      228.2     0.0      0.0    0.0    0.0    0.0      0.0      0.0   -9.90      0.3      0.0     3      5.7      3.5    61      6.0     3.5     58
     1     8  2021   133    3      226.4     0.9      0.0    0.0    0.9    0.0      0.0      0.0   -9.90      0.2      0.2   100      3.7      2.5    68      3.8     2.7     69
     2     8  2021   134    3      223.8     0.1      0.0    0.0    0.1    0.0      0.0      0.0   -9.90      0.2      0.1    49      4.1      2.6    63      4.4     2.7     62
     3     8  2021   135    3      224.5     3.2      0.0    0.0    3.2    0.0      0.0      0.0   -9.90      0.2      0.2   100      3.6      2.4    65      3.8     2.6     67
     4     8  2021   136    3      222.2     0.0      0.0    0.0    0.0    0.0      0.0      0.0   -9.90      0.2      0.2   100      3.2      2.1    65      3.4     2.3     67
     5     8  2021   137    3      224.2     4.4      0.0    0.0    4.4    0.0      0.0      0.0   -9.90      0.2      0.2   100      3.4      2.2    66      3.6     2.4     68
     6     8  2021   138    3      222.5     0.9      0.0    0.0    0.9    0.0      0.0      0.0   -9.90      0.2      0.2   100      3.8      2.4    62      4.0     2.6     64
     7     8  2021   139    3      220.0     0.0      0.0    0.0    0.0    0.0      0.0      0.0   -9.90      0.2      0.2   100      3.8      2.3    59      4.1     2.5     62
     8     8  2021   140    3      217.3     0.0      0.0    0.0    0.0    0.0      0.0      0.0   -9.90      0.3      0.3   100      4.5      2.4    54      4.8     2.7     56
     9     8  2021   141    3      215.9     1.1      0.0    0.0    1.1    0.0      0.0      0.0   -9.90      0.3      0.3   100      4.2      2.2    53      4.5     2.5     56
    10     8  2021   142    3      214.4     0.6      0.0    0.0    0.6    0.0      0.0      0.0   -9.90      0.2      0.2   100      3.5      1.9    54      3.7     2.1     57
    11     8  2021   143    4      212.3     0.0      0.0    0.0    0.0    0.0      0.0      0.0   -9.90      0.3      0.3   100      3.5      1.8    52      3.8     2.1     55
    12     8  2021   144    4      210.2     0.0      0.0    0.0    0.0    0.0      0.0      0.0   -9.90      0.3      0.1    32      4.2      2.0    47      4.5     2.1     46
    13     8  2021   145    4      208.9     1.1      0.0    0.0    1.1    0.0      0.0      0.0   -9.90      0.4      0.4   100      4.6      2.0    44      5.0     2.4     49
    14     8  2021   146    4      206.7     0.0      0.0    0.0    0.0    0.0      0.0      0.0   -9.90      0.4      0.4   100      4.4      1.9    42      4.8     2.3     47
    15     8  2021   147    4      204.7     0.0      0.0    0.0    0.0    0.0      0.0      0.0   -9.90      0.4      0.3    85      3.9      1.6    42      4.3     1.9     45
    16     8  2021   148    4      203.3     0.6      0.0    0.0    0.6    0.0      0.0      0.0   -9.90      0.4      0.4   100      4.1      1.6    39      4.5     2.0     45
    17     8  2021   149    4      201.8     0.0      0.0    0.0    0.0    0.0      0.0      0.0   -9.90      0.4      0.2    49      3.2      1.3    40      3.5     1.5     41
    18     8  2021   150    4      200.5     0.0      0.0    0.0    0.0    0.0      0.0      0.0   -9.90      0.4      0.0     2      3.4      1.3    38      3.8     1.3     34
    19     8  2021   151    4      199.4     0.0      0.0    0.0    0.0    0.0      0.0      0.0   -9.90      0.4      0.0     2      2.8      1.1    39      3.2     1.1     34
    20     8  2021   152    4      198.4     0.1      0.0    0.0    0.1    0.0      0.0      0.0   -9.90      0.4      0.1    26      2.8      1.0    37      3.2     1.2     36
    21     8  2021   153    4      197.4     0.0      0.0    0.0    0.0    0.0      0.0      0.0   -9.90      0.4      0.0     2      2.7      1.0    36      3.1     1.0     32
    22     8  2021   154    4      260.8    71.0      0.0    0.0   65.9    5.1      0.0      0.0   -9.90      0.4      0.4   100      2.2      2.2   100      2.5     2.5    100
    23     8  2021   155    4      273.9    17.4      0.0    0.0   14.4    3.0      0.0      0.0   -9.90      0.2      0.2   100      1.1      1.1   100      1.3     1.3    100
    24     8  2021   156    4      270.9     0.0      0.0    0.0    0.0    0.0      0.0      0.0   -9.90      0.4      0.4   100      2.6      2.6   100      3.0     3.0    100
    25     8  2021   157    4      272.8     5.0      0.0    0.0    4.9    0.1      0.0      0.0   -9.90      0.4      0.4   100      2.6      2.6   100      3.0     3.0    100
    26     8  2021   158    4      277.6     6.8      0.0    0.0    6.5    0.3      0.0      0.0   -9.90      0.2      0.2   100      1.5      1.5   100      1.8     1.8    100
    27     8  2021   159    4      287.9    13.7      0.0    0.0   11.9    1.8      0.0      0.0   -9.90      0.2      0.2   100      1.4      1.4   100      1.6     1.6    100
    28     8  2021   160    4      286.1     0.1      0.0    0.0    0.1    0.0      0.0      0.0   -9.90      0.3      0.3    99      1.7      1.7   100      1.9     1.9    100
    29     8  2021   161    4      297.6    15.6      0.0    0.0   13.2    2.4      0.0      0.0   -9.90      0.2      0.2   100      1.4      1.4   100      1.7     1.7    100
    30     8  2021   162    4      311.0    18.3      0.0    0.0   14.9    3.4      0.0      0.0   -9.90      0.2      0.2   100      1.3      1.3   100      1.6     1.6    100
    31     8  2021   163    4      309.8     1.0      0.0    0.0    1.0    0.0      0.0      0.0   -9.90      0.3      0.3   100      1.8      1.8   100      2.2     2.2    100
     1     9  2021   164    4      307.7     0.0      0.0    0.0    0.0    0.0      0.0      0.0   -9.90      0.3      0.3   100      1.7      1.7   100      2.1     2.1    100
     2     9  2021   165    4      305.3     0.0      0.0    0.0    0.0    0.0      0.0      0.0   -9.90      0.4      0.4   100      2.0      2.0   100      2.4     2.4    100
     3     9  2021   166    4      302.7     0.0      0.0    0.0    0.0    0.0      0.0      0.0   -9.90      0.5      0.4    76      2.3      2.3   100      2.8     2.7     96
     4     9  2021   167    4      301.0     0.0      0.0    0.0    0.0    0.0      0.0      0.0   -9.90      0.3      0.2    56      1.5      1.5   100      1.8     1.7     92
     5     9  2021   168    4      298.7     0.0      0.0    0.0    0.0    0.0      0.0      0.0   -9.90      0.5      0.2    46      2.1      2.1   100      2.5     2.3     90
     6     9  2021   169    4      296.5     0.0      0.0    0.0    0.0    0.0      0.0      0.0   -9.90      0.4      0.2    36      2.0      2.0   100      2.4     2.2     88
     7     9  2021   170    4      294.7     0.0      0.0    0.0    0.0    0.0      0.0      0.0   -9.90      0.4      0.1    28      1.8      1.8   100      2.2     1.9     86
     8     9  2021   171    4      292.4     0.0      0.0    0.0    0.0    0.0      0.0      0.0   -9.90      0.5      0.1    22      2.1      2.1   100      2.7     2.2     85
     9     9  2021   172    4      289.8     0.0      0.0    0.0    0.0    0.0      0.0      0.0   -9.90      0.7      0.1    17      2.6      2.6   100      3.2     2.7     83
    10     9  2021   173    4      287.7     0.2      0.0    0.0    0.2    0.0      0.0      0.0   -9.90      0.5      0.3    51      2.0      2.0   100      2.5     2.3     90
    11     9  2021   174    4      299.0    12.9      0.0    0.0   12.9    0.0      0.0      0.0   -9.90      0.4      0.4   100      1.3      1.3   100      1.7     1.7    100
    12     9  2021   175    4      298.0     0.8      0.0    0.0    0.8    0.0      0.0      0.0   -9.90      0.4      0.4   100      1.3      1.3   100      1.7     1.7    100
    13     9  2021   176    4      296.3     0.0      0.0    0.0    0.0    0.0      0.0      0.0   -9.90      0.4      0.4   100      1.3      1.3   100      1.7     1.7    100
    14     9  2021   177    4      294.5     0.0      0.0    0.0    0.0    0.0      0.0      0.0   -9.90      0.5      0.3    60      1.5      1.5   100      2.0     1.8     90
    15     9  2021   178    4      298.0     5.3      0.0    0.0    5.3    0.0      0.0      0.0   -9.90      0.5      0.5   100      1.4      1.4   100      1.9     1.9    100
    16     9  2021   179    4      296.3     0.0      0.0    0.0    0.0    0.0      0.0      0.0   -9.90      0.5      0.5   100      1.2      1.2   100      1.7     1.7    100
    17     9  2021   180    4      296.1     1.2      0.0    0.0    1.2    0.0      0.0      0.0   -9.90      0.4      0.4   100      1.0      1.0   100      1.4     1.4    100
    18     9  2021   181    4      296.1     1.1      0.0    0.0    1.1    0.0      0.0      0.0   -9.90      0.3      0.3   100      0.8      0.8   100      1.1     1.1    100
    19     9  2021   182    4      295.0     0.0      0.0    0.0    0.0    0.0      0.0      0.0   -9.90      0.4      0.4   100      0.7      0.7   100      1.1     1.1    100
    20     9  2021   183    4      294.1     0.0      0.0    0.0    0.0    0.0      0.0      0.0   -9.90      0.3      0.3   100      0.6      0.6   100      0.9     0.9    100
    21     9  2021   184    4      293.4     0.3      0.0    0.0    0.3    0.0      0.0      0.0   -9.90      0.4      0.4    83      0.7      0.7   100      1.1     1.1     94
    22     9  2021   185    4      292.5     0.0      0.0    0.0    0.0    0.0      0.0      0.0   -9.90      0.5      0.2    39      0.7      0.7   100      1.2     0.9     76
    23     9  2021   186    4      291.2     0.2      0.0    0.0    0.2    0.0      0.0      0.0   -9.90      0.8      0.4    51      1.1      1.1   100      1.8     1.5     80
    24     9  2021   187    4      290.1     0.0      0.0    0.0    0.0    0.0      0.0      0.0   -9.90      0.7      0.2    29      0.9      0.9   100      1.6     1.1     69
    25     9  2021   188    4      289.4     0.0      0.0    0.0    0.0    0.0      0.0      0.0   -9.90      0.5      0.1    24      0.6      0.6   100      1.2     0.7     65
    26     9  2021   189    4      288.6     0.0      0.0    0.0    0.0    0.0      0.0      0.0   -9.90      0.7      0.2    22      0.7      0.7   100      1.4     0.8     61
    27     9  2021   190    4      288.1     0.0      0.0    0.0    0.0    0.0      0.0      0.0   -9.90      0.4      0.1    19      0.4      0.4   100      0.8     0.4     56
    28     9  2021   191    4      289.9     2.4      0.0    0.0    2.4    0.0      0.0      0.0   -9.90      0.4      0.4   100      0.3      0.3   100      0.6     0.6    100
    29     9  2021   192    4      292.7     3.5      0.0    0.0    3.5    0.0      0.0      0.0   -9.90      0.4      0.4   100      0.2      0.2   100      0.7     0.7    100
    30     9  2021   193    4      291.6     0.0      0.0    0.0    0.0    0.0      0.0      0.0   -9.90      0.8      0.8   100      0.3      0.3   100      1.1     1.1    100
     1    10  2021   194    4      290.5     0.0      0.0    0.0    0.0    0.0      0.0      0.0   -9.90      0.9      0.9   100      0.3      0.3   100      1.2     1.2    100
     2    10  2021   195    4      289.3     0.0      0.0    0.0    0.0    0.0      0.0      0.0   -9.90      1.0      1.0   100      0.2      0.2   100      1.1     1.1    100
     3    10  2021   196    4      288.8     0.3      0.0    0.0    0.3    0.0      0.0      0.0   -9.90      1.8      0.6    34      0.2      0.2   100      2.0     0.8     41
     4    10  2021   197    4      290.5     2.4      0.0    0.0    2.4    0.0      0.0      0.0   -9.90      0.6      0.6   100      0.0      0.0   100      0.7     0.7    100

** Run number:  3
   Day Month  Year   DAP Stage     WCTot    Rain     Irri   Surf   Infilt   RO    Drain       CR    Zgwt       Ex       E     E/Ex    Trx       Tr  Tr/Trx    ETx      ET   ET/ETx
                                      mm      mm       mm     mm     mm     mm       mm       mm      m        mm       mm     %       mm       mm    %        mm      mm      %
    22     3  2022     1    1      461.8     0.0      0.0    0.0    0.0    0.0      0.0      0.0   -9.90      3.7      3.2    85      0.0      0.0   100      3.7     3.2     85
    23     3  2022     2    1      459.9     0.0      0.0    0.0    0.0    0.0      0.0      0.0   -9.90      3.0      1.9    64      0.0      0.0   100      3.0     1.9     64
    24     3  2022     3    1      458.7     0.0      0.0    0.0    0.0    0.0      0.0      0.0   -9.90      2.3      1.2    54      0.0      0.0   100      2.3     1.2     54
    25     3  2022     4    1      457.5     0.0      0.0    0.0    0.0    0.0      0.0      0.0   -9.90      2.4      1.1    47      0.0      0.0   100      2.4     1.1     47
    26     3  2022     5    1      456.4     0.0      0.0    0.0    0.0    0.0      0.0      0.0   -9.90      2.8      1.1    42      0.0      0.0   100      2.8     1.1     42
    27     3  2022     6    1      455.6     0.0      0.0    0.0    0.0    0.0      0.0      0.0   -9.90      2.2      0.8    37      0.0      0.0   100      2.2     0.8     37
    28     3  2022     7    1      454.5     0.0      0.0    0.0    0.0    0.0      0.0      0.0   -9.90      3.3      1.1    33      0.0      0.0   100      3.3     1.1     33
    29     3  2022     8    1      453.8     0.0      0.0    0.0    0.0    0.0      0.0      0.0   -9.90      2.3      0.7    30      0.0      0.0   100      2.3     0.7     30
    30     3  2022     9    1      453.3     0.0      0.0    0.0    0.0    0.0      0.0      0.0   -9.90      1.8      0.5    28      0.0      0.0   100      1.8     0.5     28
    31     3  2022    10    1      452.8     0.0      0.0    0.0    0.0    0.0      0.0      0.0   -9.90      2.0      0.5    27      0.0      0.0   100      2.0     0.5     27
     1     4  2022    11    1      452.0     0.0      0.0    0.0    0.0    0.0      0.0      0.0   -9.90      3.0      0.7    25      0.0      0.0   100      3.0     0.7     25
     2     4  2022    12    1      451.5     0.0      0.0    0.0    0.0    0.0      0.0      0.0   -9.90      2.2      0.5    23      0.0      0.0   100      2.2     0.5     23
     3     4  2022    13    1      451.0     0.0      0.0    0.0    0.0    0.0      0.0      0.0   -9.90      2.3      0.5    22      0.0      0.0   100      2.3     0.5     22
     4     4  2022    14    2      460.7    11.7      0.0    0.0   11.7    0.0      0.0      0.0   -9.90      1.9      1.9   100      0.0      0.0   100      2.0     2.0    100
     5     4  2022    15    2      467.3     8.3      0.0    0.0    8.1    0.2      0.0      0.0   -9.90      1.4      1.4   100      0.1      0.1   100      1.5     1.5    100
     6     4  2022    16    2      464.9     0.1      0.0    0.0    0.1    0.0      0.4      0.0   -9.90      2.0      1.9    92      0.3      0.3   100      2.3     2.1     93
     7     4  2022    17    2      467.9     6.9      0.0    0.0    6.7    0.2      0.6      0.0   -9.90      2.8      2.8   100      0.4      0.4   100      3.1     3.1    100
     8     4  2022    18    2      466.0     1.0      0.0    0.0    1.0    0.0      0.8      0.0   -9.90      2.1      2.0    97      0.1      0.1   100      2.2     2.1     97
     9     4  2022    19    2      463.2     0.0      0.0    0.0    0.0    0.0      0.8      0.0   -9.90      2.2      1.8    79      0.2      0.2   100      2.4     2.0     81
    10     4  2022    20    2      461.8     1.0      0.0    0.0    1.0    0.0      0.5      0.0   -9.90      1.9      1.8    99      0.1      0.1   100      2.0     1.9     99
    11     4  2022    21    2      459.4     0.0      0.0    0.0    0.0    0.0      0.2      0.0   -9.90      2.4      2.0    82      0.2      0.2   100      2.6     2.1     83
    12     4  2022    22    2      456.9     0.0      0.0    0.0    0.0    0.0      0.1      0.0   -9.90      3.3      2.1    63      0.4      0.4   100      3.7     2.5     67
    13     4  2022    23    2      454.3     0.0      0.0    0.0    0.0    0.0      0.0      0.0   -9.90      3.8      1.8    48      0.8      0.8   100      4.6     2.6     57
    14     4  2022    24    2      454.9     3.5      0.0    0.0    3.5    0.0      0.0      0.0   -9.90      2.4      2.4   100      0.5      0.5   100      2.9     2.9    100
    15     4  2022    25    2      454.8     1.3      0.0    0.0    1.3    0.0      0.0      0.0   -9.90      1.2      1.2   100      0.1      0.1   100      1.4     1.4    100
    16     4  2022    26    2      452.9     0.0      0.0    0.0    0.0    0.0      0.0      0.0   -9.90      2.3      1.7    75      0.2      0.2   100      2.5     1.9     77
    17     4  2022    27    2      451.3     0.0      0.0    0.0    0.0    0.0      0.0      0.0   -9.90      2.4      1.4    58      0.2      0.2   100      2.6     1.6     61
    18     4  2022    28    2      449.8     0.0      0.0    0.0    0.0    0.0      0.0      0.0   -9.90      2.4      1.1    47      0.3      0.3   100      2.7     1.5     53
    19     4  2022    29    2      448.6     0.0      0.0    0.0    0.0    0.0      0.0      0.0   -9.90      2.3      0.9    38      0.3      0.3   100      2.6     1.2     46
    20     4  2022    30    2      448.3     1.3      0.0    0.0    1.3    0.0      0.0      0.0   -9.90      1.7      1.5    83      0.2      0.2   100      1.9     1.6     85
    21     4  2022    31    2      447.8     0.9      0.0    0.0    0.9    0.0      0.0      0.0   -9.90      1.3      1.0    79      0.3      0.3   100      1.7     1.4     83
    22     4  2022    32    2      446.8     0.0      0.0    0.0    0.0    0.0      0.0      0.0   -9.90      1.8      0.5    29      0.5      0.5   100      2.3     1.1     46
    23     4  2022    33    2      445.3     0.0      0.0    0.0    0.0    0.0      0.0      0.0   -9.90      2.8      0.7    25      0.8      0.8   100      3.6     1.5     42
    24     4  2022    34    2      444.0     0.8      0.0    0.0    0.8    0.0      0.0      0.0   -9.90      2.6      1.2    45      0.9      0.9   100      3.5     2.1     60
    25     4  2022    35    2      443.1     0.0      0.0    0.0    0.0    0.0      0.0      0.0   -9.90      1.9      0.3    18      0.5      0.5   100      2.4     0.9     35
    26     4  2022    36    2      442.1     0.0      0.0    0.0    0.0    0.0      0.0      0.0   -9.90      2.3      0.4    16      0.6      0.6   100      2.9     1.0     34
    27     4  2022    37    2      440.7     0.0      0.0    0.0    0.0    0.0      0.0      0.0   -9.90      2.5      0.4    15      1.1      1.1   100      3.6     1.4     40
    28     4  2022    38    2      439.5     0.0      0.0    0.0    0.0    0.0      0.0      0.0   -9.90      2.3      0.3    13      1.0      1.0   100      3.3     1.3     38
    29     4  2022    39    2      438.1     0.0      0.0    0.0    0.0    0.0      0.0      0.0   -9.90      2.5      0.3    11      1.1      1.1   100      3.5     1.4     38
    30     4  2022    40    2      436.5     0.0      0.0    0.0    0.0    0.0      0.0      0.0   -9.90      2.5      0.2    10      1.4      1.4   100      3.9     1.6     42
     1     5  2022    41    2      435.0     0.0      0.0    0.0    0.0    0.0      0.0      0.0   -9.90      2.4      0.2     8      1.3      1.3   100      3.7     1.5     41
     2     5  2022    42    2      433.3     0.0      0.0    0.0    0.0    0.0      0.0      0.0   -9.90      2.3      0.2     7      1.5      1.5   100      3.9     1.7     44
     3     5  2022    43    2      431.6     0.0      0.0    0.0    0.0    0.0      0.0      0.0   -9.90      2.3      0.2     7      1.5      1.5   100      3.8     1.7     44
     4     5  2022    44    2      429.8     0.5      0.0    0.0    0.5    0.0      0.0      0.0   -9.90      2.2      0.6    27      1.7      1.7   100      3.9     2.3     59
     5     5  2022    45    2      427.9     0.0      0.0    0.0    0.0    0.0      0.0      0.0   -9.90      2.2      0.1     5      1.7      1.7   100      3.9     1.8     47
     6     5  2022    46    2      426.1     0.0      0.0    0.0    0.0    0.0      0.0      0.0   -9.90      2.1      0.1     4      1.7      1.7   100      3.8     1.8     47
     7     5  2022    47    2      423.8     0.0      0.0    0.0    0.0    0.0      0.0      0.0   -9.90      2.3      0.1     4      2.2      2.2   100      4.5     2.3     51
     8     5  2022    48    2      421.5     0.0      0.0    0.0    0.0    0.0      0.0      0.0   -9.90      2.2      0.1     3      2.2      2.2   100      4.4     2.3     52
[...]
    21     6  2024    92    2      323.6     3.4      0.0    0.0    3.4    0.0      0.0      0.0   -9.90      0.3      0.3   100      5.0      5.0   100      5.3     5.3    100
    22     6  2024    93    2      336.9    17.9      0.0    0.0   17.9    0.0      0.0      0.0   -9.90      0.3      0.3   100      4.4      4.4   100      4.7     4.7    100
    23     6  2024    94    2      332.2     0.0      0.0    0.0    0.0    0.0      0.0      0.0   -9.90      0.3      0.3   100      4.4      4.4   100      4.7     4.7    100
    24     6  2024    95    2      327.2     0.0      0.0    0.0    0.0    0.0      0.0      0.0   -9.90      0.3      0.3   100      4.7      4.7   100      5.0     5.0    100
    25     6  2024    96    2      321.2     0.0      0.0    0.0    0.0    0.0      0.0      0.0   -9.90      0.3      0.3   100      5.7      5.7   100      6.0     6.0    100
    26     6  2024    97    2      314.2     0.0      0.0    0.0    0.0    0.0      0.0      0.0   -9.90      0.4      0.4   100      6.7      6.7   100      7.1     7.1    100
    27     6  2024    98    2      309.8     1.5      0.0    0.0    1.5    0.0      0.0      0.0   -9.90      0.3      0.3   100      5.6      5.6   100      5.9     5.9    100
    28     6  2024    99    2      303.3     0.0      0.0    0.0    0.0    0.0      0.0      0.0   -9.90      0.3      0.3   100      6.2      6.2   100      6.5     6.5    100
    29     6  2024   100    2      305.6     9.1      0.0    0.0    9.1    0.0      0.0      0.0   -9.90      0.3      0.3   100      6.5      6.5   100      6.8     6.8    100
    30     6  2024   101    2      305.4     4.6      0.0    0.0    4.6    0.0      0.0      0.0   -9.90      0.2      0.2   100      4.6      4.6   100      4.8     4.8    100
     1     7  2024   102    2      315.6    13.7      0.0    0.0   13.7    0.0      0.0      0.0   -9.90      0.2      0.2   100      3.3      3.3   100      3.5     3.5    100
     2     7  2024   103    2      313.0     0.3      0.0    0.0    0.3    0.0      0.0      0.0   -9.90      0.1      0.1   100      2.8      2.8   100      2.9     2.9    100
     3     7  2024   104    2      309.5     0.0      0.0    0.0    0.0    0.0      0.0      0.0   -9.90      0.1      0.1   100      3.3      3.3   100      3.5     3.5    100
     4     7  2024   105    2      311.3     5.4      0.0    0.0    5.4    0.0      0.0      0.0   -9.90      0.1      0.1   100      3.4      3.4   100      3.6     3.6    100
     5     7  2024   106    2      306.7     0.0      0.0    0.0    0.0    0.0      0.0      0.0   -9.90      0.2      0.2   100      4.5      4.5   100      4.7     4.7    100
     6     7  2024   107    2      307.5     7.9      0.0    0.0    7.9    0.0      0.0      0.0   -9.90      0.3      0.3   100      6.8      6.8   100      7.1     7.1    100
     7     7  2024   108    2      302.5     0.0      0.0    0.0    0.0    0.0      0.0      0.0   -9.90      0.2      0.2   100      4.8      4.8   100      5.0     5.0    100
     8     7  2024   109    2      296.7     0.0      0.0    0.0    0.0    0.0      0.0      0.0   -9.90      0.2      0.2   100      5.6      5.6   100      5.9     5.9    100
     9     7  2024   110    2      289.8     0.0      0.0    0.0    0.0    0.0      0.0      0.0   -9.90      0.3      0.3   100      6.6      6.6   100      6.8     6.8    100
    10     7  2024   111    2      305.8    21.6      0.0    0.0   21.6    0.0      0.0      0.0   -9.90      0.2      0.2   100      5.4      5.4   100      5.6     5.6    100
    11     7  2024   112    2      323.7    24.1      0.0    0.0   22.4    1.7      0.0      0.0   -9.90      0.2      0.2   100      4.4      4.4   100      4.6     4.6    100
    12     7  2024   113    2      333.8    15.9      0.0    0.0   13.6    2.3      0.0      0.0   -9.90      0.1      0.1   100      3.4      3.4   100      3.5     3.5    100
    13     7  2024   114    2      329.4     0.0      0.0    0.0    0.0    0.0      0.0      0.0   -9.90      0.1      0.1   100      4.2      4.2   100      4.3     4.3    100
    14     7  2024   115    2      324.6     0.0      0.0    0.0    0.0    0.0      0.0      0.0   -9.90      0.2      0.2   100      4.7      4.7   100      4.9     4.9    100
    15     7  2024   116    2      318.8     0.0      0.0    0.0    0.0    0.0      0.0      0.0   -9.90      0.2      0.2   100      5.6      5.6   100      5.8     5.8    100
    16     7  2024   117    2      313.4     0.0      0.0    0.0    0.0    0.0      0.0      0.0   -9.90      0.2      0.2   100      5.3      5.3   100      5.4     5.4    100
    17     7  2024   118    2      308.2     0.0      0.0    0.0    0.0    0.0      0.0      0.0   -9.90      0.2      0.2   100      5.1      5.1   100      5.2     5.2    100
    18     7  2024   119    2      303.3     0.0      0.0    0.0    0.0    0.0      0.0      0.0   -9.90      0.1      0.1   100      4.7      4.7   100      4.9     4.9    100
    19     7  2024   120    2      297.8     0.0      0.0    0.0    0.0    0.0      0.0      0.0   -9.90      0.2      0.2   100      5.4      5.4   100      5.5     5.5    100
    20     7  2024   121    2      291.6     0.0      0.0    0.0    0.0    0.0      0.0      0.0   -9.90      0.2      0.2   100      6.0      6.0   100      6.2     6.2    100
    21     7  2024   122    2      285.3     0.2      0.0    0.0    0.2    0.0      0.0      0.0   -9.90      0.2      0.2   100      6.3      6.3   100      6.5     6.5    100
    22     7  2024   123    2      280.8     0.0      0.0    0.0    0.0    0.0      0.0      0.0   -9.90      0.1      0.0    11      4.4      4.4   100      4.6     4.4     97
    23     7  2024   124    2      282.4     6.9      0.0    0.0    6.9    0.0      0.0      0.0   -9.90      0.2      0.2   100      5.2      5.2   100      5.3     5.3    100
    24     7  2024   125    2      280.4     1.9      0.0    0.0    1.9    0.0      0.0      0.0   -9.90      0.1      0.1   100      3.8      3.8   100      3.9     3.9    100
    25     7  2024   126    2      275.8     0.0      0.0    0.0    0.0    0.0      0.0      0.0   -9.90      0.1      0.1   100      4.4      4.4   100      4.6     4.6    100
    26     7  2024   127    2      272.3     0.7      0.0    0.0    0.7    0.0      0.0      0.0   -9.90      0.1      0.1   100      4.1      4.1   100      4.2     4.2    100
    27     7  2024   128    3      304.5    35.8      0.0    0.0   35.4    0.4      0.0      0.0   -9.90      0.1      0.1   100      3.0      3.0   100      3.1     3.1    100
    28     7  2024   129    3      302.5     1.8      0.0    0.0    1.8    0.0      0.0      0.0   -9.90      0.1      0.1   100      3.8      3.8   100      3.9     3.9    100
    29     7  2024   130    3      298.0     0.0      0.0    0.0    0.0    0.0      0.0      0.0   -9.90      0.1      0.1   100      4.3      4.3   100      4.4     4.4    100
    30     7  2024   131    3      292.9     0.0      0.0    0.0    0.0    0.0      0.0      0.0   -9.90      0.1      0.1   100      5.0      5.0   100      5.2     5.2    100
    31     7  2024   132    3      287.7     0.1      0.0    0.0    0.1    0.0      0.0      0.0   -9.90      0.1      0.1    82      5.1      5.1   100      5.3     5.2    100
     1     8  2024   133    3      283.1     0.2      0.0    0.0    0.2    0.0      0.0      0.0   -9.90      0.1      0.1   100      4.7      4.7   100      4.8     4.8    100
     2     8  2024   134    3      280.7     0.8      0.0    0.0    0.8    0.0      0.0      0.0   -9.90      0.1      0.1   100      3.1      3.1   100      3.2     3.2    100
     3     8  2024   135    3      280.6     4.1      0.0    0.0    4.1    0.0      0.0      0.0   -9.90      0.1      0.1   100      4.1      4.1   100      4.2     4.2    100
     4     8  2024   136    3      278.3     1.4      0.0    0.0    1.4    0.0      0.0      0.0   -9.90      0.1      0.1   100      3.6      3.6   100      3.7     3.7    100
     5     8  2024   137    3      274.2     0.0      0.0    0.0    0.0    0.0      0.0      0.0   -9.90      0.1      0.1   100      3.9      3.9   100      4.0     4.0    100
     6     8  2024   138    3      269.6     0.0      0.0    0.0    0.0    0.0      0.0      0.0   -9.90      0.1      0.1   100      4.5      4.5   100      4.7     4.7    100
     7     8  2024   139    3      264.4     0.0      0.0    0.0    0.0    0.0      0.0      0.0   -9.90      0.2      0.2   100      5.0      5.0   100      5.2     5.2    100
     8     8  2024   140    3      260.4     0.0      0.0    0.0    0.0    0.0      0.0      0.0   -9.90      0.1      0.1   100      3.9      3.9   100      4.0     4.0    100
     9     8  2024   141    3      256.2     0.1      0.0    0.0    0.1    0.0      0.0      0.0   -9.90      0.1      0.1    72      4.3      4.1    96      4.4     4.2     96
    10     8  2024   142    3      252.0     0.0      0.0    0.0    0.0    0.0      0.0      0.0   -9.90      0.2      0.0     2      4.7      4.2    89      4.9     4.2     87
    11     8  2024   143    4      248.3     0.0      0.0    0.0    0.0    0.0      0.0      0.0   -9.90      0.1      0.0     2      4.2      3.7    89      4.3     3.7     86
    12     8  2024   144    4      244.7     0.0      0.0    0.0    0.0    0.0      0.0      0.0   -9.90      0.1      0.0     2      4.3      3.6    84      4.4     3.6     82
    13     8  2024   145    4      240.3     0.0      0.0    0.0    0.0    0.0      0.0      0.0   -9.90      0.2      0.0     2      6.2      4.4    71      6.4     4.4     68
    14     8  2024   146    4      236.3     0.0      0.0    0.0    0.0    0.0      0.0      0.0   -9.90      0.2      0.0     2      5.8      4.0    68      6.0     4.0     66
    15     8  2024   147    4      233.4     0.0      0.0    0.0    0.0    0.0      0.0      0.0   -9.90      0.1      0.0     2      4.0      3.0    73      4.2     3.0     71
    16     8  2024   148    4      230.1     0.0      0.0    0.0    0.0    0.0      0.0      0.0   -9.90      0.2      0.0     2      5.1      3.3    65      5.3     3.3     63
    17     8  2024   149    4      227.2     0.0      0.0    0.0    0.0    0.0      0.0      0.0   -9.90      0.2      0.0     2      4.3      2.8    65      4.5     2.8     63
    18     8  2024   150    4      225.1     0.0      0.0    0.0    0.0    0.0      0.0      0.0   -9.90      0.1      0.0     2      3.1      2.1    69      3.2     2.1     66
    19     8  2024   151    4      222.8     0.0      0.0    0.0    0.0    0.0      0.0      0.0   -9.90      0.1      0.0     2      3.6      2.3    64      3.7     2.3     61
    20     8  2024   152    4      220.5     0.4      0.0    0.0    0.4    0.0      0.0      0.0   -9.90      0.2      0.2   100      4.4      2.6    57      4.6     2.7     59
    21     8  2024   153    4      217.8     0.0      0.0    0.0    0.0    0.0      0.0      0.0   -9.90      0.2      0.2    98      4.7      2.5    54      4.9     2.7     55
    22     8  2024   154    4      215.7     0.0      0.0    0.0    0.0    0.0      0.0      0.0   -9.90      0.2      0.0     2      3.8      2.1    55      4.0     2.1     52
    23     8  2024   155    4      212.9     0.0      0.0    0.0    0.0    0.0      0.0      0.0   -9.90      0.3      0.0     2      6.3      2.7    44      6.6     2.8     42
    24     8  2024   156    4      210.4     0.0      0.0    0.0    0.0    0.0      0.0      0.0   -9.90      0.3      0.0     2      6.1      2.6    42      6.5     2.6     40
    25     8  2024   157    4      208.4     0.0      0.0    0.0    0.0    0.0      0.0      0.0   -9.90      0.3      0.0     2      4.5      2.0    44      4.8     2.0     42
    26     8  2024   158    4      206.8     0.0      0.0    0.0    0.0    0.0      0.0      0.0   -9.90      0.2      0.0     2      3.3      1.5    47      3.5     1.5     44
    27     8  2024   159    4      205.2     0.0      0.0    0.0    0.0    0.0      0.0      0.0   -9.90      0.3      0.0     2      4.0      1.7    42      4.3     1.7     40
    28     8  2024   160    4      203.3     0.0      0.0    0.0    0.0    0.0      0.0      0.0   -9.90      0.4      0.0     2      4.7      1.8    38      5.1     1.8     36
    29     8  2024   161    4      201.7     0.0      0.0    0.0    0.0    0.0      0.0      0.0   -9.90      0.4      0.0     2      4.4      1.6    37      4.8     1.6     35
    30     8  2024   162    4      200.3     0.0      0.0    0.0    0.0    0.0      0.0      0.0   -9.90      0.3      0.0     2      3.7      1.4    37      4.0     1.4     35
    31     8  2024   163    4      199.3     0.0      0.0    0.0    0.0    0.0      0.0      0.0   -9.90      0.2      0.0     2      2.6      1.0    40      2.9     1.0     36
     1     9  2024   164    4      198.1     0.0      0.0    0.0    0.0    0.0      0.0      0.0   -9.90      0.3      0.0     2      3.2      1.1    36      3.5     1.2     33
     2     9  2024   165    4      196.9     0.0      0.0    0.0    0.0    0.0      0.0      0.0   -9.90      0.4      0.0     2      3.4      1.2    34      3.7     1.2     31
     3     9  2024   166    4      195.8     0.0      0.0    0.0    0.0    0.0      0.0      0.0   -9.90      0.4      0.0     2      3.6      1.2    32      4.1     1.2     29
     4     9  2024   167    4      194.5     0.0      0.0    0.0    0.0    0.0      0.0      0.0   -9.90      0.6      0.0     2      4.6      1.3    28      5.2     1.3     25
     5     9  2024   168    4      193.2     0.0      0.0    0.0    0.0    0.0      0.0      0.0   -9.90      0.7      0.0     2      4.8      1.3    26      5.6     1.3     23
     6     9  2024   169    4      192.2     0.0      0.0    0.0    0.0    0.0      0.0      0.0   -9.90      0.6      0.0     2      3.6      1.0    28      4.2     1.0     24
     7     9  2024   170    4      191.2     0.0      0.0    0.0    0.0    0.0      0.0      0.0   -9.90      0.6      0.0     2      3.5      0.9    27      4.2     1.0     23
     8     9  2024   171    4      190.3     0.3      0.0    0.0    0.3    0.0      0.0      0.0   -9.90      0.7      0.3    42      3.8      0.9    25      4.5     1.3     28
     9     9  2024   172    4      202.2    13.7      0.0    0.0   13.7    0.0      0.0      0.0   -9.90      0.3      0.3   100      1.5      1.5   100      1.8     1.8    100
    10     9  2024   173    4      200.0     0.0      0.0    0.0    0.0    0.0      0.0      0.0   -9.90      0.4      0.4   100      1.8      1.8   100      2.2     2.2    100
    11     9  2024   174    4      198.1     0.0      0.0    0.0    0.0    0.0      0.0      0.0   -9.90      0.4      0.4   100      1.5      1.5   100      1.9     1.9    100
    12     9  2024   175    4      196.9     0.1      0.0    0.0    0.1    0.0      0.0      0.0   -9.90      0.3      0.1    37      1.2      1.2   100      1.6     1.3     86
    13     9  2024   176    4      207.2    11.4      0.0    0.0   11.4    0.0      0.0      0.0   -9.90      0.3      0.3   100      0.8      0.8   100      1.1     1.1    100
    14     9  2024   177    4      205.1     0.0      0.0    0.0    0.0    0.0      0.0      0.0   -9.90      0.5      0.5   100      1.6      1.6   100      2.1     2.1    100
    15     9  2024   178    4      212.0     8.4      0.0    0.0    8.4    0.0      0.0      0.0   -9.90      0.4      0.4   100      1.1      1.1   100      1.5     1.5    100
    16     9  2024   179    4      213.8     2.7      0.0    0.0    2.7    0.0      0.0      0.0   -9.90      0.2      0.2   100      0.7      0.7   100      0.9     0.9    100
    17     9  2024   180    4      212.1     0.0      0.0    0.0    0.0    0.0      0.0      0.0   -9.90      0.5      0.5   100      1.3      1.3   100      1.7     1.7    100
    18     9  2024   181    4      210.4     0.0      0.0    0.0    0.0    0.0      0.0      0.0   -9.90      0.5      0.5   100      1.2      1.2   100      1.7     1.7    100
    19     9  2024   182    4      208.5     0.0      0.0    0.0    0.0    0.0      0.0      0.0   -9.90      0.5      0.5   100      1.3      1.3   100      1.8     1.8    100
    20     9  2024   183    4      206.4     0.0      0.0    0.0    0.0    0.0      0.0      0.0   -9.90      0.7      0.7   100      1.5      1.5   100      2.2     2.2    100
    21     9  2024   184    4      204.5     0.0      0.0    0.0    0.0    0.0      0.0      0.0   -9.90      0.7      0.4    58      1.4      1.4   100      2.1     1.8     86
    22     9  2024   185    4      203.2     0.0      0.0    0.0    0.0    0.0      0.0      0.0   -9.90      0.7      0.2    26      1.1      1.1   100      1.8     1.3     73
    23     9  2024   186    4      202.1     0.0      0.0    0.0    0.0    0.0      0.0      0.0   -9.90      0.6      0.1    21      1.0      1.0   100      1.6     1.1     69
    24     9  2024   187    4      209.3     8.1      0.0    0.0    8.1    0.0      0.0      0.0   -9.90      0.4      0.4   100      0.5      0.5   100      0.9     0.9    100
    25     9  2024   188    4      208.9     0.9      0.0    0.0    0.9    0.0      0.0      0.0   -9.90      0.6      0.6   100      0.7      0.7   100      1.3     1.3    100
    26     9  2024   189    4      209.2     1.5      0.0    0.0    1.5    0.0      0.0      0.0   -9.90      0.6      0.6   100      0.6      0.6   100      1.2     1.2    100
    27     9  2024   190    4      207.9     0.4      0.0    0.0    0.4    0.0      0.0      0.0   -9.90      1.0      0.7    70      1.0      1.0   100      2.0     1.7     84
    28     9  2024   191    4      207.2     0.3      0.0    0.0    0.3    0.0      0.0      0.0   -9.90      0.7      0.5    66      0.5      0.5   100      1.3     1.0     80
    29     9  2024   192    4      206.8     0.0      0.0    0.0    0.0    0.0      0.0      0.0   -9.90      0.5      0.2    38      0.2      0.2   100      0.7     0.4     58
    30     9  2024   193    4      206.3     0.2      0.0    0.0    0.2    0.0      0.0      0.0   -9.90      0.8      0.4    52      0.3      0.3   100      1.0     0.7     65
     1    10  2024   194    4      213.0     7.2      0.0    0.0    7.2    0.0      0.0      0.0   -9.90      0.4      0.4   100      0.1      0.1   100      0.5     0.5    100
     2    10  2024   195    4      215.8     3.1      0.0    0.0    3.1    0.0      0.0      0.0   -9.90      0.3      0.3   100      0.0      0.0   100      0.3     0.3    100
     3    10  2024   196    4      216.7     1.4      0.0    0.0    1.4    0.0      0.0      0.0   -9.90      0.4      0.4   100      0.0      0.0   100      0.5     0.5    100
     4    10  2024   197    4      218.0     1.8      0.0    0.0    1.8    0.0      0.0      0.0   -9.90      0.5      0.5   100      0.0      0.0   100      0.5     0.5    100

Legend

DAP          : Days after planting
Stage        : 0: before/after planting
Stage        : 1: emergence or transplant recovery
Stage        : 2: vegetative stage
Stage        : 3: flowering
Stage        : 4: yield formation and ripening
WCTot        : Water content in total soil profile
Rain         : Rainfall
Irri         : Water applied by irrigation
Surf         : Stored water on soil surface between bunds
Infilt       : Infiltrated water in soil profile
RO           : Surface runoff
Drain        : Water drained out of the soil profile
CR           : Water moved upward by capillary rise
Zgwt         : Depth of the groundwater table (-9.90 if absent)
Ex           : Maximum soil evaporation
E            : Soil evaporation
E/Ex         : Relative soil evaporation (100 E/Ex)
Trx          : Maximum crop transpiration
Tr           : Total transpiration of crop and weeds
Tr/Trx       : Relative transpiration (100 Tr/Trx)
ETx          : Evapotranspiration maximale
ET           : Evapotranspiration
ET/ETx       : Evapotranspiration relative (100 ET/ETx)
