AquaCrop 6.1 (May 2018) - Output created on (date) : 5/16/2025   at (time) : 10:14:27 AM
Soil Water Content (WC) at various depths (at center of compartments)

** Run number:  1
                 at depth (m):      0.05        0.15        0.25        0.35        0.45        0.55        0.67        0.82        0.97        1.13        1.27        1.45
   Day Month  Year   DAP Stage   WC1(vol%)   WC2(vol%)   WC3(vol%)   WC4(vol%)   WC5(vol%)   WC6(vol%)   WC7(vol%)   WC8(vol%)   WC9(vol%)  WC10(vol%)  WC11(vol%)  WC12(vol%)
    22     3  2020     1    1       28.3        30.0        30.0        30.0        30.0        30.0        30.0        30.0        30.0        30.0        30.0        30.0
    23     3  2020     2    1       27.0        30.0        30.0        30.0        30.0        30.0        30.0        30.0        30.0        30.0        30.0        30.0
    24     3  2020     3    1       25.5        30.0        30.0        30.0        30.0        30.0        30.0        30.0        30.0        30.0        30.0        30.0
    25     3  2020     4    1       24.0        30.0        30.0        30.0        30.0        30.0        30.0        30.0        30.0        30.0        30.0        30.0
    26     3  2020     5    1       22.6        30.0        30.0        30.0        30.0        30.0        30.0        30.0        30.0        30.0        30.0        30.0
    27     3  2020     6    1       21.4        30.0        30.0        30.0        30.0        30.0        30.0        30.0        30.0        30.0        30.0        30.0
    28     3  2020     7    1       20.4        30.0        30.0        30.0        30.0        30.0        30.0        30.0        30.0        30.0        30.0        30.0
    29     3  2020     8    1       19.7        30.0        30.0        30.0        30.0        30.0        30.0        30.0        30.0        30.0        30.0        30.0
    30     3  2020     9    1       18.4        30.0        30.0        30.0        30.0        30.0        30.0        30.0        30.0        30.0        30.0        30.0
    31     3  2020    10    1       17.4        30.0        30.0        30.0        30.0        30.0        30.0        30.0        30.0        30.0        30.0        30.0
     1     4  2020    11    1       16.1        30.0        30.0        30.0        30.0        30.0        30.0        30.0        30.0        30.0        30.0        30.0
     2     4  2020    12    1       14.9        30.0        30.0        30.0        30.0        30.0        30.0        30.0        30.0        30.0        30.0        30.0
     3     4  2020    13    1       13.6        30.0        30.0        30.0        30.0        30.0        30.0        30.0        30.0        30.0        30.0        30.0
     4     4  2020    14    2       12.9        30.0        30.0        30.0        30.0        30.0        30.0        30.0        30.0        30.0        30.0        30.0
     5     4  2020    15    2       11.7        30.0        30.0        30.0        30.0        30.0        30.0        30.0        30.0        30.0        30.0        30.0
     6     4  2020    16    2       10.0        30.0        30.0        30.0        30.0        30.0        30.0        30.0        30.0        30.0        30.0        30.0
     7     4  2020    17    2        9.4        29.5        30.0        30.0        30.0        30.0        30.0        30.0        30.0        30.0        30.0        30.0
     8     4  2020    18    2        8.8        29.0        30.0        30.0        30.0        30.0        30.0        30.0        30.0        30.0        30.0        30.0
     9     4  2020    19    2        8.3        28.6        30.0        30.0        30.0        30.0        30.0        30.0        30.0        30.0        30.0        30.0
    10     4  2020    20    2        8.0        28.3        30.0        30.0        30.0        30.0        30.0        30.0        30.0        30.0        30.0        30.0
    11     4  2020    21    2        7.7        28.1        30.0        30.0        30.0        30.0        30.0        30.0        30.0        30.0        30.0        30.0
    12     4  2020    22    2        7.6        27.5        30.0        30.0        30.0        30.0        30.0        30.0        30.0        30.0        30.0        30.0
    13     4  2020    23    2        7.4        27.3        30.0        30.0        30.0        30.0        30.0        30.0        30.0        30.0        30.0        30.0
    14     4  2020    24    2        7.2        27.2        30.0        30.0        30.0        30.0        30.0        30.0        30.0        30.0        30.0        30.0
    15     4  2020    25    2        6.9        26.6        30.0        30.0        30.0        30.0        30.0        30.0        30.0        30.0        30.0        30.0
    16     4  2020    26    2        6.6        26.0        30.0        30.0        30.0        30.0        30.0        30.0        30.0        30.0        30.0        30.0
    17     4  2020    27    2        6.4        25.5        30.0        30.0        30.0        30.0        30.0        30.0        30.0        30.0        30.0        30.0
    18     4  2020    28    2        6.1        24.9        30.0        30.0        30.0        30.0        30.0        30.0        30.0        30.0        30.0        30.0
    19     4  2020    29    2        5.9        24.5        30.0        30.0        30.0        30.0        30.0        30.0        30.0        30.0        30.0        30.0
    20     4  2020    30    2        5.7        24.0        30.0        30.0        30.0        30.0        30.0        30.0        30.0        30.0        30.0        30.0
    21     4  2020    31    2        5.5        23.0        30.0        30.0        30.0        30.0        30.0        30.0        30.0        30.0        30.0        30.0
    22     4  2020    32    2        5.3        22.0        30.0        30.0        30.0        30.0        30.0        30.0        30.0        30.0        30.0        30.0
    23     4  2020    33    2        5.1        21.0        30.0        30.0        30.0        30.0        30.0        30.0        30.0        30.0        30.0        30.0
    24     4  2020    34    2        5.0        19.5        30.0        30.0        30.0        30.0        30.0        30.0        30.0        30.0        30.0        30.0
    25     4  2020    35    2        5.0        18.4        30.0        30.0        30.0        30.0        30.0        30.0        30.0        30.0        30.0        30.0
    26     4  2020    36    2        5.0        17.3        30.0        30.0        30.0        30.0        30.0        30.0        30.0        30.0        30.0        30.0
    27     4  2020    37    2        5.0        15.8        30.0        30.0        30.0        30.0        30.0        30.0        30.0        30.0        30.0        30.0
    28     4  2020    38    2        5.0        14.1        30.0        30.0        30.0        30.0        30.0        30.0        30.0        30.0        30.0        30.0
    29     4  2020    39    2        5.0        13.2        30.0        30.0        30.0        30.0        30.0        30.0        30.0        30.0        30.0        30.0
    30     4  2020    40    2        5.0        11.8        30.0        30.0        30.0        30.0        30.0        30.0        30.0        30.0        30.0        30.0
     1     5  2020    41    2        5.0        10.2        30.0        30.0        30.0        30.0        30.0        30.0        30.0        30.0        30.0        30.0
     2     5  2020    42    2        5.0         9.8        29.4        30.0        30.0        30.0        30.0        30.0        30.0        30.0        30.0        30.0
     3     5  2020    43    2        5.0         9.8        28.5        30.0        30.0        30.0        30.0        30.0        30.0        30.0        30.0        30.0
     4     5  2020    44    2        5.0         9.8        27.8        30.0        30.0        30.0        30.0        30.0        30.0        30.0        30.0        30.0
     5     5  2020    45    2        5.0         9.7        27.1        30.0        30.0        30.0        30.0        30.0        30.0        30.0        30.0        30.0
     6     5  2020    46    2        5.0         9.7        25.4        30.0        30.0        30.0        30.0        30.0        30.0        30.0        30.0        30.0
     7     5  2020    47    2        5.0         9.6        23.9        30.0        30.0        30.0        30.0        30.0        30.0        30.0        30.0        30.0
     8     5  2020    48    2        5.0         9.6        21.5        30.0        30.0        30.0        30.0        30.0        30.0        30.0        30.0        30.0
     9     5  2020    49    2        5.0         9.5        18.8        30.0        30.0        30.0        30.0        30.0        30.0        30.0        30.0        30.0
    10     5  2020    50    2        5.0         9.5        16.1        30.0        30.0        30.0        30.0        30.0        30.0        30.0        30.0        30.0
    11     5  2020    51    2       14.2         9.5        16.1        30.0        30.0        30.0        30.0        30.0        30.0        30.0        30.0        30.0
    12     5  2020    52    2       12.6         9.5        16.1        30.0        30.0        30.0        30.0        30.0        30.0        30.0        30.0        30.0
    13     5  2020    53    2       10.3         9.5        16.1        30.0        30.0        30.0        30.0        30.0        30.0        30.0        30.0        30.0
    14     5  2020    54    2        9.1         9.5        14.8        30.0        30.0        30.0        30.0        30.0        30.0        30.0        30.0        30.0
    15     5  2020    55    2        7.7         9.5        13.5        30.0        30.0        30.0        30.0        30.0        30.0        30.0        30.0        30.0
    16     5  2020    56    2        7.7         9.5        10.9        30.0        30.0        30.0        30.0        30.0        30.0        30.0        30.0        30.0
    17     5  2020    57    2        7.7         9.5         9.6        28.2        30.0        30.0        30.0        30.0        30.0        30.0        30.0        30.0
    18     5  2020    58    2        7.6         9.5         9.6        24.3        29.9        30.0        30.0        30.0        30.0        30.0        30.0        30.0
    19     5  2020    59    2        7.6         9.5         9.6        21.0        29.9        30.0        30.0        30.0        30.0        30.0        30.0        30.0
    20     5  2020    60    2        7.6         9.5         9.6        17.8        29.9        30.0        30.0        30.0        30.0        30.0        30.0        30.0
    21     5  2020    61    2        7.6         9.5         9.6        14.3        29.9        30.0        30.0        30.0        30.0        30.0        30.0        30.0
    22     5  2020    62    2        8.7         9.5         9.6        10.9        29.0        30.0        30.0        30.0        30.0        30.0        30.0        30.0
    23     5  2020    63    2        9.0         9.5         9.6         9.6        27.5        30.0        30.0        30.0        30.0        30.0        30.0        30.0
    24     5  2020    64    2       20.6         9.5         9.6         9.6        27.5        30.0        30.0        30.0        30.0        30.0        30.0        30.0
    25     5  2020    65    2       19.2         9.5         9.6         9.6        27.5        30.0        30.0        30.0        30.0        30.0        30.0        30.0
    26     5  2020    66    2       15.5         9.5         9.6         9.6        27.5        30.0        30.0        30.0        30.0        30.0        30.0        30.0
    27     5  2020    67    2       11.5         9.5         9.6         9.6        27.5        30.0        30.0        30.0        30.0        30.0        30.0        30.0
    28     5  2020    68    2        9.0         9.5         9.6         9.6        26.2        30.0        30.0        30.0        30.0        30.0        30.0        30.0
    29     5  2020    69    2        9.0         9.5         9.6         9.6        22.5        29.9        30.0        30.0        30.0        30.0        30.0        30.0
    30     5  2020    70    2        9.0         9.5         9.6         9.6        19.0        29.9        30.0        30.0        30.0        30.0        30.0        30.0
    31     5  2020    71    2        9.0         9.5         9.6         9.6        15.3        29.3        30.0        30.0        30.0        30.0        30.0        30.0
     1     6  2020    72    2        9.0         9.5         9.6         9.6        11.9        27.8        30.0        30.0        30.0        30.0        30.0        30.0
     2     6  2020    73    2        8.9         9.5         9.6         9.6        10.0        24.5        29.9        30.0        30.0        30.0        30.0        30.0
     3     6  2020    74    2        8.9         9.5         9.6         9.6        10.0        21.1        28.8        30.0        30.0        30.0        30.0        30.0
     4     6  2020    75    2        9.9         9.5         9.6         9.6        10.0        17.7        28.0        30.0        30.0        30.0        30.0        30.0
     5     6  2020    76    2        9.9         9.5         9.6         9.6        10.0        14.4        28.0        30.0        30.0        30.0        30.0        30.0
     6     6  2020    77    2        9.9         9.5         9.6         9.6        10.0        11.4        27.2        30.0        30.0        30.0        30.0        30.0
     7     6  2020    78    2       10.0         9.5         9.6         9.6        10.0         9.8        25.9        30.0        30.0        30.0        30.0        30.0
     8     6  2020    79    2        9.9         9.5         9.6         9.6        10.0         9.8        22.9        30.0        30.0        30.0        30.0        30.0
     9     6  2020    80    2        9.9         9.5         9.6         9.6        10.0         9.8        20.3        30.0        30.0        30.0        30.0        30.0
    10     6  2020    81    2        9.9         9.5         9.6         9.6        10.0         9.8        17.3        30.0        30.0        30.0        30.0        30.0
    11     6  2020    82    2        9.9         9.5         9.6         9.6        10.0         9.8        15.1        30.0        30.0        30.0        30.0        30.0
    12     6  2020    83    2        9.2         9.5         9.6         9.6        10.0         9.8        14.8        30.0        30.0        30.0        30.0        30.0
    13     6  2020    84    2        9.2         9.5         9.6         9.6        10.0         9.8        12.9        30.0        30.0        30.0        30.0        30.0
    14     6  2020    85    2        8.7         9.5         9.6         9.6        10.0         9.8        10.7        28.9        30.0        30.0        30.0        30.0
    15     6  2020    86    2        8.3         9.5         9.6         9.6        10.0         9.8        10.0        26.3        29.9        30.0        30.0        30.0
    16     6  2020    87    2        7.8         9.5         9.6         9.6        10.0         9.8        10.0        23.6        29.1        30.0        30.0        30.0
    17     6  2020    88    2        7.4         9.5         9.6         9.6        10.0         9.8        10.0        20.9        28.1        30.0        30.0        30.0
    18     6  2020    89    2        8.5         9.5         9.6         9.6        10.0         9.8        10.0        18.2        27.5        30.0        30.0        30.0
    19     6  2020    90    2        8.9         9.5         9.6         9.6        10.0         9.8        10.0        16.5        27.5        30.0        30.0        30.0
    20     6  2020    91    2        9.1         9.5         9.6         9.6        10.0         9.8        10.0        14.0        27.5        30.0        30.0        30.0
    21     6  2020    92    2        8.9         9.5         9.6         9.6        10.0         9.8        10.0        11.7        26.7        30.0        30.0        30.0
    22     6  2020    93    2        8.9         9.5         9.6         9.6        10.0         9.8        10.0        10.4        24.4        29.7        30.0        30.0
    23     6  2020    94    2        8.9         9.5         9.6         9.6        10.0         9.8        10.0        10.0        22.1        28.7        30.0        30.0
    24     6  2020    95    2        8.9         9.5         9.6         9.6        10.0         9.8        10.0        10.0        19.8        27.7        30.0        30.0
    25     6  2020    96    2        8.8         9.5         9.6         9.6        10.0         9.8        10.0        10.0        17.5        26.5        30.0        30.0
    26     6  2020    97    2        9.2         9.5         9.6         9.6        10.0         9.8        10.0        10.0        16.7        26.5        30.0        30.0
    27     6  2020    98    2        9.2         9.5         9.6         9.6        10.0         9.8        10.0        10.0        14.5        25.3        30.0        30.0
    28     6  2020    99    2        9.2         9.5         9.6         9.6        10.0         9.8        10.0        10.0        12.5        24.4        30.0        30.0
    29     6  2020   100    2        9.2         9.5         9.6         9.6        10.0         9.8        10.0        10.0        12.5        24.4        30.0        30.0
    30     6  2020   101    2        8.8         9.5         9.6         9.6        10.0         9.8        10.0        10.0        11.1        22.8        30.0        30.0
     1     7  2020   102    2       14.9         9.5         9.6         9.6        10.0         9.8        10.0        10.0        11.1        22.8        30.0        30.0
     2     7  2020   103    2       11.9         9.5         9.6         9.6        10.0         9.8        10.0        10.0        11.1        22.8        30.0        30.0
     3     7  2020   104    2        9.1         9.5         9.6         9.6        10.0         9.8        10.0        10.0        10.3        22.8        30.0        30.0
     4     7  2020   105    2        8.8         9.5         9.6         9.6        10.0         9.8        10.0        10.0        10.1        21.0        29.3        30.0
     5     7  2020   106    2        9.3         9.5         9.6         9.6        10.0         9.8        10.0        10.0        10.0        19.7        29.3        30.0
     6     7  2020   107    2        8.9         9.5         9.6         9.6        10.0         9.8        10.0        10.0        10.0        17.9        28.8        30.0
     7     7  2020   108    2        9.3         9.5         9.6         9.6        10.0         9.8        10.0        10.0        10.0        16.1        28.5        30.0
     8     7  2020   109    2        9.5         9.5         9.6         9.6        10.0         9.8        10.0        10.0        10.0        15.4        28.5        30.0
     9     7  2020   110    2       13.7         9.5         9.6         9.6        10.0         9.8        10.0        10.0        10.0        15.4        28.5        30.0
    10     7  2020   111    2       10.3         9.5         9.6         9.6        10.0         9.8        10.0        10.0        10.0        15.4        28.5        30.0
    11     7  2020   112    2        9.7         9.5         9.6         9.6        10.0         9.8        10.0        10.0        10.0        14.0        28.5        30.0
    12     7  2020   113    2        9.7         9.5         9.6         9.6        10.0         9.8        10.0        10.0        10.0        12.5        28.3        30.0
    13     7  2020   114    2        9.6         9.5         9.6         9.6        10.0         9.8        10.0        10.0        10.0        11.3        27.6        30.0
    14     7  2020   115    2        9.6         9.5         9.6         9.6        10.0         9.8        10.0        10.0        10.0        10.6        26.3        30.0
    15     7  2020   116    2       22.5         9.5         9.6         9.6        10.0         9.8        10.0        10.0        10.0        10.6        26.3        30.0
    16     7  2020   117    2       22.1         9.5         9.6         9.6        10.0         9.8        10.0        10.0        10.0        10.6        26.3        30.0
    17     7  2020   118    2       18.5         9.5         9.6         9.6        10.0         9.8        10.0        10.0        10.0        10.6        26.3        30.0
    18     7  2020   119    2       13.7         9.5         9.6         9.6        10.0         9.8        10.0        10.0        10.0        10.6        26.3        30.0
    19     7  2020   120    2       11.1         9.5         9.6         9.6        10.0         9.8        10.0        10.0        10.0        10.6        26.3        30.0
    20     7  2020   121    2        9.4         9.5         9.6         9.6        10.0         9.8        10.0        10.0        10.0        10.2        25.9        30.0
    21     7  2020   122    2        9.0         9.5         9.6         9.6        10.0         9.8        10.0        10.0        10.0        10.1        24.6        29.9
    22     7  2020   123    2        9.5         9.5         9.6         9.6        10.0         9.8        10.0        10.0        10.0        10.0        23.3        29.9
    23     7  2020   124    2        9.1         9.5         9.6         9.6        10.0         9.8        10.0        10.0        10.0        10.0        22.0        29.9
    24     7  2020   125    2        9.0         9.5         9.6         9.6        10.0         9.8        10.0        10.0        10.0        10.0        20.7        29.7
    25     7  2020   126    2        9.0         9.5         9.6         9.6        10.0         9.8        10.0        10.0        10.0        10.0        19.5        29.7
    26     7  2020   127    2        9.5         9.5         9.6         9.6        10.0         9.8        10.0        10.0        10.0        10.0        19.1        29.7
    27     7  2020   128    3        9.0         9.5         9.6         9.6        10.0         9.8        10.0        10.0        10.0        10.0        17.9        29.7
    28     7  2020   129    3        8.4         9.5         9.6         9.6        10.0         9.8        10.0        10.0        10.0        10.0        16.7        29.7
    29     7  2020   130    3        8.0         9.5         9.6         9.6        10.0         9.8        10.0        10.0        10.0        10.0        15.6        29.7
    30     7  2020   131    3        8.0         9.5         9.6         9.6        10.0         9.8        10.0        10.0        10.0        10.0        14.6        29.7
    31     7  2020   132    3        8.0         9.5         9.6         9.6        10.0         9.8        10.0        10.0        10.0        10.0        13.7        29.7
     1     8  2020   133    3        8.0         9.5         9.6         9.6        10.0         9.8        10.0        10.0        10.0        10.0        12.7        29.7
     2     8  2020   134    3        9.3         9.5         9.6         9.6        10.0         9.8        10.0        10.0        10.0        10.0        12.0        29.7
     3     8  2020   135    3        8.8         9.5         9.6         9.6        10.0         9.8        10.0        10.0        10.0        10.0        11.3        29.7
     4     8  2020   136    3        8.2         9.5         9.6         9.6        10.0         9.8        10.0        10.0        10.0        10.0        10.7        29.6
     5     8  2020   137    3        8.0         9.5         9.6         9.6        10.0         9.8        10.0        10.0        10.0        10.0        10.4        29.3
     6     8  2020   138    3        8.0         9.5         9.6         9.6        10.0         9.8        10.0        10.0        10.0        10.0        10.2        28.9
     7     8  2020   139    3        7.9         9.5         9.6         9.6        10.0         9.8        10.0        10.0        10.0        10.0        10.1        28.5
     8     8  2020   140    3        7.9         9.5         9.6         9.6        10.0         9.8        10.0        10.0        10.0        10.0        10.1        28.0
     9     8  2020   141    3        7.9         9.5         9.6         9.6        10.0         9.8        10.0        10.0        10.0        10.0        10.0        27.6
    10     8  2020   142    3        8.8         9.5         9.6         9.6        10.0         9.8        10.0        10.0        10.0        10.0        10.0        27.3
    11     8  2020   143    4        7.9         9.5         9.6         9.6        10.0         9.8        10.0        10.0        10.0        10.0        10.0        26.9
    12     8  2020   144    4        7.9         9.5         9.6         9.6        10.0         9.8        10.0        10.0        10.0        10.0        10.0        26.5
    13     8  2020   145    4        7.8         9.5         9.6         9.6        10.0         9.8        10.0        10.0        10.0        10.0        10.0        26.2
    14     8  2020   146    4        7.8         9.5         9.6         9.6        10.0         9.8        10.0        10.0        10.0        10.0        10.0        26.0
    15     8  2020   147    4        7.8         9.5         9.6         9.6        10.0         9.8        10.0        10.0        10.0        10.0        10.0        25.7
    16     8  2020   148    4        7.8         9.5         9.6         9.6        10.0         9.8        10.0        10.0        10.0        10.0        10.0        25.5
    17     8  2020   149    4        7.8         9.5         9.6         9.6        10.0         9.8        10.0        10.0        10.0        10.0        10.0        25.3
    18     8  2020   150    4        8.6         9.5         9.6         9.6        10.0         9.8        10.0        10.0        10.0        10.0        10.0        25.1
    19     8  2020   151    4        7.7         9.5         9.6         9.6        10.0         9.8        10.0        10.0        10.0        10.0        10.0        25.0
    20     8  2020   152    4        7.7         9.5         9.6         9.6        10.0         9.8        10.0        10.0        10.0        10.0        10.0        24.8
    21     8  2020   153    4        7.7         9.5         9.6         9.6        10.0         9.8        10.0        10.0        10.0        10.0        10.0        24.6
    22     8  2020   154    4       11.4         9.5         9.6         9.6        10.0         9.8        10.0        10.0        10.0        10.0        10.0        24.6
    23     8  2020   155    4       11.1         9.5         9.6         9.6        10.0         9.8        10.0        10.0        10.0        10.0        10.0        24.6
    24     8  2020   156    4       10.9         9.5         9.6         9.6        10.0         9.8        10.0        10.0        10.0        10.0        10.0        24.6
    25     8  2020   157    4       10.7         9.5         9.6         9.6        10.0         9.8        10.0        10.0        10.0        10.0        10.0        24.6
    26     8  2020   158    4       10.6         9.5         9.6         9.6        10.0         9.8        10.0        10.0        10.0        10.0        10.0        24.6
    27     8  2020   159    4       10.5         9.5         9.6         9.6        10.0         9.8        10.0        10.0        10.0        10.0        10.0        24.6
    28     8  2020   160    4       10.7         9.5         9.6         9.6        10.0         9.8        10.0        10.0        10.0        10.0        10.0        24.6
    29     8  2020   161    4       10.4         9.5         9.6         9.6        10.0         9.8        10.0        10.0        10.0        10.0        10.0        24.6
    30     8  2020   162    4       31.3         9.5         9.6         9.6        10.0         9.8        10.0        10.0        10.0        10.0        10.0        24.6
    31     8  2020   163    4       30.2        10.4         9.6         9.6        10.0         9.8        10.0        10.0        10.0        10.0        10.0        24.6
     1     9  2020   164    4       28.8        10.6         9.6         9.6        10.0         9.8        10.0        10.0        10.0        10.0        10.0        24.6
     2     9  2020   165    4       29.1        10.6         9.6         9.6        10.0         9.8        10.0        10.0        10.0        10.0        10.0        24.6
     3     9  2020   166    4       34.0        10.6         9.6         9.6        10.0         9.8        10.0        10.0        10.0        10.0        10.0        24.6
     4     9  2020   167    4       29.7        13.7         9.6         9.6        10.0         9.8        10.0        10.0        10.0        10.0        10.0        24.6
     5     9  2020   168    4       28.8        13.7         9.6         9.6        10.0         9.8        10.0        10.0        10.0        10.0        10.0        24.6
     6     9  2020   169    4       27.6        13.7         9.6         9.6        10.0         9.8        10.0        10.0        10.0        10.0        10.0        24.6
     7     9  2020   170    4       26.5        13.7         9.6         9.6        10.0         9.8        10.0        10.0        10.0        10.0        10.0        24.6
     8     9  2020   171    4       25.3        13.7         9.6         9.6        10.0         9.8        10.0        10.0        10.0        10.0        10.0        24.6
     9     9  2020   172    4       24.2        13.7         9.6         9.6        10.0         9.8        10.0        10.0        10.0        10.0        10.0        24.6
    10     9  2020   173    4       23.4        13.7         9.6         9.6        10.0         9.8        10.0        10.0        10.0        10.0        10.0        24.6
    11     9  2020   174    4       22.6        13.7         9.6         9.6        10.0         9.8        10.0        10.0        10.0        10.0        10.0        24.6
    12     9  2020   175    4       21.7        13.7         9.6         9.6        10.0         9.8        10.0        10.0        10.0        10.0        10.0        24.6
    13     9  2020   176    4       21.1        13.7         9.6         9.6        10.0         9.8        10.0        10.0        10.0        10.0        10.0        24.6
    14     9  2020   177    4       20.4        13.7         9.6         9.6        10.0         9.8        10.0        10.0        10.0        10.0        10.0        24.6
    15     9  2020   178    4       19.7        13.7         9.6         9.6        10.0         9.8        10.0        10.0        10.0        10.0        10.0        24.6
    16     9  2020   179    4       19.1        13.7         9.6         9.6        10.0         9.8        10.0        10.0        10.0        10.0        10.0        24.6
    17     9  2020   180    4       18.7        13.7         9.6         9.6        10.0         9.8        10.0        10.0        10.0        10.0        10.0        24.6
    18     9  2020   181    4       18.4        13.7         9.6         9.6        10.0         9.8        10.0        10.0        10.0        10.0        10.0        24.6
    19     9  2020   182    4       18.0        13.7         9.6         9.6        10.0         9.8        10.0        10.0        10.0        10.0        10.0        24.6
    20     9  2020   183    4       17.6        13.7         9.6         9.6        10.0         9.8        10.0        10.0        10.0        10.0        10.0        24.6
    21     9  2020   184    4       17.2        13.7         9.6         9.6        10.0         9.8        10.0        10.0        10.0        10.0        10.0        24.6
    22     9  2020   185    4       16.9        13.7         9.6         9.6        10.0         9.8        10.0        10.0        10.0        10.0        10.0        24.6
    23     9  2020   186    4       16.5        13.7         9.6         9.6        10.0         9.8        10.0        10.0        10.0        10.0        10.0        24.6
    24     9  2020   187    4       20.9        13.7         9.6         9.6        10.0         9.8        10.0        10.0        10.0        10.0        10.0        24.6
    25     9  2020   188    4       27.0        13.7         9.6         9.6        10.0         9.8        10.0        10.0        10.0        10.0        10.0        24.6
    26     9  2020   189    4       42.6        13.7         9.6         9.6        10.0         9.8        10.0        10.0        10.0        10.0        10.0        24.6
    27     9  2020   190    4       32.6        22.9         9.6         9.6        10.0         9.8        10.0        10.0        10.0        10.0        10.0        24.6
    28     9  2020   191    4       29.6        24.7         9.6         9.6        10.0         9.8        10.0        10.0        10.0        10.0        10.0        24.6
    29     9  2020   192    4       28.7        24.7         9.6         9.6        10.0         9.8        10.0        10.0        10.0        10.0        10.0        24.6
    30     9  2020   193    4       27.7        24.7         9.6         9.6        10.0         9.8        10.0        10.0        10.0        10.0        10.0        24.6
     1    10  2020   194    4       26.9        24.7         9.6         9.6        10.0         9.8        10.0        10.0        10.0        10.0        10.0        24.6
     2    10  2020   195    4       26.0        24.7         9.6         9.6        10.0         9.8        10.0        10.0        10.0        10.0        10.0        24.6
     3    10  2020   196    4       24.8        24.7         9.6         9.6        10.0         9.8        10.0        10.0        10.0        10.0        10.0        24.6
     4    10  2020   197    4       23.9        24.7         9.6         9.6        10.0         9.8        10.0        10.0        10.0        10.0        10.0        24.6

** Run number:  2
                 at depth (m):      0.05        0.15        0.25        0.35        0.45        0.55        0.67        0.82        0.97        1.13        1.27        1.45
   Day Month  Year   DAP Stage   WC1(vol%)   WC2(vol%)   WC3(vol%)   WC4(vol%)   WC5(vol%)   WC6(vol%)   WC7(vol%)   WC8(vol%)   WC9(vol%)  WC10(vol%)  WC11(vol%)  WC12(vol%)
    22     3  2021     1    1       28.4        30.0        30.0        30.0        30.0        30.0        30.0        30.0        30.0        30.0        30.0        30.0
    23     3  2021     2    1       27.4        30.0        30.0        30.0        30.0        30.0        30.0        30.0        30.0        30.0        30.0        30.0
    24     3  2021     3    1       25.9        30.0        30.0        30.0        30.0        30.0        30.0        30.0        30.0        30.0        30.0        30.0
    25     3  2021     4    1       24.6        30.0        30.0        30.0        30.0        30.0        30.0        30.0        30.0        30.0        30.0        30.0
    26     3  2021     5    1       23.5        30.0        30.0        30.0        30.0        30.0        30.0        30.0        30.0        30.0        30.0        30.0
    27     3  2021     6    1       23.2        30.0        30.0        30.0        30.0        30.0        30.0        30.0        30.0        30.0        30.0        30.0
    28     3  2021     7    1       21.1        30.0        30.0        30.0        30.0        30.0        30.0        30.0        30.0        30.0        30.0        30.0
    29     3  2021     8    1       18.6        30.0        30.0        30.0        30.0        30.0        30.0        30.0        30.0        30.0        30.0        30.0
    30     3  2021     9    1       16.9        30.0        30.0        30.0        30.0        30.0        30.0        30.0        30.0        30.0        30.0        30.0
    31     3  2021    10    1       15.6        30.0        30.0        30.0        30.0        30.0        30.0        30.0        30.0        30.0        30.0        30.0
     1     4  2021    11    1       14.6        30.0        30.0        30.0        30.0        30.0        30.0        30.0        30.0        30.0        30.0        30.0
     2     4  2021    12    1       13.8        30.0        30.0        30.0        30.0        30.0        30.0        30.0        30.0        30.0        30.0        30.0
     3     4  2021    13    1       13.1        30.0        30.0        30.0        30.0        30.0        30.0        30.0        30.0        30.0        30.0        30.0
     4     4  2021    14    2       12.4        30.0        30.0        30.0        30.0        30.0        30.0        30.0        30.0        30.0        30.0        30.0
     5     4  2021    15    2       14.0        30.0        30.0        30.0        30.0        30.0        30.0        30.0        30.0        30.0        30.0        30.0
     6     4  2021    16    2       13.6        30.0        30.0        30.0        30.0        30.0        30.0        30.0        30.0        30.0        30.0        30.0
     7     4  2021    17    2       13.2        30.0        30.0        30.0        30.0        30.0        30.0        30.0        30.0        30.0        30.0        30.0
     8     4  2021    18    2       12.5        30.0        30.0        30.0        30.0        30.0        30.0        30.0        30.0        30.0        30.0        30.0
     9     4  2021    19    2       12.5        30.0        30.0        30.0        30.0        30.0        30.0        30.0        30.0        30.0        30.0        30.0
    10     4  2021    20    2       12.9        30.0        30.0        30.0        30.0        30.0        30.0        30.0        30.0        30.0        30.0        30.0
    11     4  2021    21    2       12.0        30.0        30.0        30.0        30.0        30.0        30.0        30.0        30.0        30.0        30.0        30.0
    12     4  2021    22    2       11.6        30.0        30.0        30.0        30.0        30.0        30.0        30.0        30.0        30.0        30.0        30.0
    13     4  2021    23    2       11.1        30.0        30.0        30.0        30.0        30.0        30.0        30.0        30.0        30.0        30.0        30.0
    14     4  2021    24    2       10.6        30.0        30.0        30.0        30.0        30.0        30.0        30.0        30.0        30.0        30.0        30.0
    15     4  2021    25    2       10.5        30.0        30.0        30.0        30.0        30.0        30.0        30.0        30.0        30.0        30.0        30.0
    16     4  2021    26    2        9.9        29.9        30.0        30.0        30.0        30.0        30.0        30.0        30.0        30.0        30.0        30.0
    17     4  2021    27    2        9.6        29.6        30.0        30.0        30.0        30.0        30.0        30.0        30.0        30.0        30.0        30.0
    18     4  2021    28    2       15.5        29.6        30.0        30.0        30.0        30.0        30.0        30.0        30.0        30.0        30.0        30.0
    19     4  2021    29    2       16.7        29.6        30.0        30.0        30.0        30.0        30.0        30.0        30.0        30.0        30.0        30.0
    20     4  2021    30    2       14.4        29.6        30.0        30.0        30.0        30.0        30.0        30.0        30.0        30.0        30.0        30.0
    21     4  2021    31    2       12.6        29.6        30.0        30.0        30.0        30.0        30.0        30.0        30.0        30.0        30.0        30.0
    22     4  2021    32    2       11.6        29.6        30.0        30.0        30.0        30.0        30.0        30.0        30.0        30.0        30.0        30.0
    23     4  2021    33    2       10.5        29.6        30.0        30.0        30.0        30.0        30.0        30.0        30.0        30.0        30.0        30.0
    24     4  2021    34    2        9.9        29.5        30.0        30.0        30.0        30.0        30.0        30.0        30.0        30.0        30.0        30.0
    25     4  2021    35    2        9.6        29.4        30.0        30.0        30.0        30.0        30.0        30.0        30.0        30.0        30.0        30.0
    26     4  2021    36    2        9.3        29.3        30.0        30.0        30.0        30.0        30.0        30.0        30.0        30.0        30.0        30.0
    27     4  2021    37    2        8.9        29.2        30.0        30.0        30.0        30.0        30.0        30.0        30.0        30.0        30.0        30.0
    28     4  2021    38    2        8.6        28.3        30.0        30.0        30.0        30.0        30.0        30.0        30.0        30.0        30.0        30.0
    29     4  2021    39    2        9.6        28.3        30.0        30.0        30.0        30.0        30.0        30.0        30.0        30.0        30.0        30.0
    30     4  2021    40    2        8.1        27.7        30.0        30.0        30.0        30.0        30.0        30.0        30.0        30.0        30.0        30.0
     1     5  2021    41    2        7.4        26.8        30.0        30.0        30.0        30.0        30.0        30.0        30.0        30.0        30.0        30.0
     2     5  2021    42    2       11.1        26.8        30.0        30.0        30.0        30.0        30.0        30.0        30.0        30.0        30.0        30.0
     3     5  2021    43    2        9.4        26.1        30.0        30.0        30.0        30.0        30.0        30.0        30.0        30.0        30.0        30.0
     4     5  2021    44    2        9.3        24.5        30.0        30.0        30.0        30.0        30.0        30.0        30.0        30.0        30.0        30.0
     5     5  2021    45    2        9.2        23.3        30.0        30.0        30.0        30.0        30.0        30.0        30.0        30.0        30.0        30.0
     6     5  2021    46    2        9.4        22.6        30.0        30.0        30.0        30.0        30.0        30.0        30.0        30.0        30.0        30.0
     7     5  2021    47    2       12.9        22.6        30.0        30.0        30.0        30.0        30.0        30.0        30.0        30.0        30.0        30.0
     8     5  2021    48    2       10.1        22.6        30.0        30.0        30.0        30.0        30.0        30.0        30.0        30.0        30.0        30.0
     9     5  2021    49    2        7.9        18.9        30.0        30.0        30.0        30.0        30.0        30.0        30.0        30.0        30.0        30.0
    10     5  2021    50    2        7.7        14.9        30.0        30.0        30.0        30.0        30.0        30.0        30.0        30.0        30.0        30.0
    11     5  2021    51    2        7.6        11.5        30.0        30.0        30.0        30.0        30.0        30.0        30.0        30.0        30.0        30.0
    12     5  2021    52    2       16.2        11.5        30.0        30.0        30.0        30.0        30.0        30.0        30.0        30.0        30.0        30.0
    13     5  2021    53    2       22.0        11.5        30.0        30.0        30.0        30.0        30.0        30.0        30.0        30.0        30.0        30.0
    14     5  2021    54    2       20.4        11.5        30.0        30.0        30.0        30.0        30.0        30.0        30.0        30.0        30.0        30.0
    15     5  2021    55    2       17.6        11.5        30.0        30.0        30.0        30.0        30.0        30.0        30.0        30.0        30.0        30.0
    16     5  2021    56    2       15.0        11.5        30.0        30.0        30.0        30.0        30.0        30.0        30.0        30.0        30.0        30.0
    17     5  2021    57    2       12.5        11.5        30.0        30.0        30.0        30.0        30.0        30.0        30.0        30.0        30.0        30.0
    18     5  2021    58    2       10.4        11.5        30.0        30.0        30.0        30.0        30.0        30.0        30.0        30.0        30.0        30.0
    19     5  2021    59    2        9.6         9.5        30.0        30.0        30.0        30.0        30.0        30.0        30.0        30.0        30.0        30.0
    20     5  2021    60    2        9.6         9.5        27.1        30.0        30.0        30.0        30.0        30.0        30.0        30.0        30.0        30.0
    21     5  2021    61    2        9.6         9.5        22.7        30.0        30.0        30.0        30.0        30.0        30.0        30.0        30.0        30.0
    22     5  2021    62    2        9.5         9.5        19.3        30.0        30.0        30.0        30.0        30.0        30.0        30.0        30.0        30.0
    23     5  2021    63    2        9.5         9.5        16.5        30.0        30.0        30.0        30.0        30.0        30.0        30.0        30.0        30.0
    24     5  2021    64    2        9.5         9.5        12.6        30.0        30.0        30.0        30.0        30.0        30.0        30.0        30.0        30.0
    25     5  2021    65    2        9.4         9.5        11.1        30.0        30.0        30.0        30.0        30.0        30.0        30.0        30.0        30.0
    26     5  2021    66    2        9.9         9.5        11.1        30.0        30.0        30.0        30.0        30.0        30.0        30.0        30.0        30.0
    27     5  2021    67    2       13.5         9.5        11.1        30.0        30.0        30.0        30.0        30.0        30.0        30.0        30.0        30.0
    28     5  2021    68    2       11.2         9.5        11.1        30.0        30.0        30.0        30.0        30.0        30.0        30.0        30.0        30.0
    29     5  2021    69    2        9.0         9.5        10.7        30.0        30.0        30.0        30.0        30.0        30.0        30.0        30.0        30.0
    30     5  2021    70    2        9.0         9.5         9.6        27.3        30.0        30.0        30.0        30.0        30.0        30.0        30.0        30.0
    31     5  2021    71    2        9.0         9.5         9.6        23.4        30.0        30.0        30.0        30.0        30.0        30.0        30.0        30.0
     1     6  2021    72    2        9.0         9.5         9.6        19.3        29.1        30.0        30.0        30.0        30.0        30.0        30.0        30.0
     2     6  2021    73    2        9.3         9.5         9.6        15.2        28.6        30.0        30.0        30.0        30.0        30.0        30.0        30.0
     3     6  2021    74    2        9.3         9.5         9.6        11.6        26.2        30.0        30.0        30.0        30.0        30.0        30.0        30.0
     4     6  2021    75    2        9.3         9.5         9.6         9.6        23.8        30.0        30.0        30.0        30.0        30.0        30.0        30.0
     5     6  2021    76    2        9.2         9.5         9.6         9.6        20.0        28.3        30.0        30.0        30.0        30.0        30.0        30.0
     6     6  2021    77    2        9.2         9.5         9.6         9.6        16.2        26.6        30.0        30.0        30.0        30.0        30.0        30.0
     7     6  2021    78    2        9.2         9.5         9.6         9.6        12.6        24.7        30.0        30.0        30.0        30.0        30.0        30.0
     8     6  2021    79    2        9.2         9.5         9.6         9.6        10.1        21.8        30.0        30.0        30.0        30.0        30.0        30.0
     9     6  2021    80    2        9.2         9.5         9.6         9.6         9.9        18.3        29.0        30.0        30.0        30.0        30.0        30.0
    10     6  2021    81    2        9.2         9.5         9.6         9.6         9.9        14.8        27.7        30.0        30.0        30.0        30.0        30.0
    11     6  2021    82    2        9.2         9.5         9.6         9.6         9.9        11.7        26.0        30.0        30.0        30.0        30.0        30.0
    12     6  2021    83    2        9.2         9.5         9.6         9.6         9.9         9.9        25.6        30.0        30.0        30.0        30.0        30.0
    13     6  2021    84    2        8.8         9.5         9.6         9.6         9.9         9.9        22.7        30.0        30.0        30.0        30.0        30.0
    14     6  2021    85    2        8.3         9.5         9.6         9.6         9.9         9.9        19.6        29.4        30.0        30.0        30.0        30.0
    15     6  2021    86    2        7.9         9.5         9.6         9.6         9.9         9.9        16.4        29.4        30.0        30.0        30.0        30.0
    16     6  2021    87    2        7.4         9.5         9.6         9.6         9.9         9.9        13.4        28.2        30.0        30.0        30.0        30.0
    17     6  2021    88    2        7.2         9.5         9.6         9.6         9.9         9.9        11.2        25.6        29.4        30.0        30.0        30.0
    18     6  2021    89    2        7.2         9.5         9.6         9.6         9.9         9.9        10.2        22.9        27.3        30.0        30.0        30.0
    19     6  2021    90    2        7.2         9.5         9.6         9.6         9.9         9.9        10.0        20.2        25.2        30.0        30.0        30.0
    20     6  2021    91    2        7.2         9.5         9.6         9.6         9.9         9.9        10.0        17.4        23.1        30.0        30.0        30.0
    21     6  2021    92    2        7.1         9.5         9.6         9.6         9.9         9.9        10.0        14.7        21.4        30.0        30.0        30.0
    22     6  2021    93    2        7.1         9.5         9.6         9.6         9.9         9.9        10.0        12.3        21.4        30.0        30.0        30.0
    23     6  2021    94    2        8.0         9.5         9.6         9.6         9.9         9.9        10.0        10.5        20.6        30.0        30.0        30.0
    24     6  2021    95    2        9.9         9.5         9.6         9.6         9.9         9.9        10.0        10.0        18.9        30.0        30.0        30.0
    25     6  2021    96    2        9.6         9.5         9.6         9.6         9.9         9.9        10.0        10.0        16.6        29.5        30.0        30.0
    26     6  2021    97    2        9.2         9.5         9.6         9.6         9.9         9.9        10.0        10.0        14.4        28.5        30.0        30.0
    27     6  2021    98    2        8.7         9.5         9.6         9.6         9.9         9.9        10.0        10.0        12.4        27.3        30.0        30.0
    28     6  2021    99    2        8.2         9.5         9.6         9.6         9.9         9.9        10.0        10.0        11.1        25.5        29.8        30.0
    29     6  2021   100    2       18.0         9.5         9.6         9.6         9.9         9.9        10.0        10.0        11.1        25.5        29.8        30.0
    30     6  2021   101    2       40.1         9.5         9.6         9.6         9.9         9.9        10.0        10.0        11.1        25.5        29.8        30.0
     1     7  2021   102    2       34.3        17.7         9.6         9.6         9.9         9.9        10.0        10.0        11.1        25.5        29.8        30.0
     2     7  2021   103    2       26.6        20.7         9.6         9.6         9.9         9.9        10.0        10.0        11.1        25.5        29.8        30.0
     3     7  2021   104    2       21.6        20.7         9.6         9.6         9.9         9.9        10.0        10.0        11.1        25.5        29.8        30.0
     4     7  2021   105    2       16.0        20.6         9.6         9.6         9.9         9.9        10.0        10.0        11.1        25.5        29.8        30.0
     5     7  2021   106    2       12.4        20.6         9.6         9.6         9.9         9.9        10.0        10.0        11.1        25.5        29.8        30.0
     6     7  2021   107    2       17.7        19.9         9.6         9.6         9.9         9.9        10.0        10.0        11.1        25.5        29.8        30.0
     7     7  2021   108    2       17.7        19.9         9.6         9.6         9.9         9.9        10.0        10.0        11.1        25.5        29.8        30.0
     8     7  2021   109    2       29.6        19.9         9.6         9.6         9.9         9.9        10.0        10.0        11.1        25.5        29.8        30.0
     9     7  2021   110    2       46.7        26.9         9.6         9.6         9.9         9.9        10.0        10.0        11.1        25.5        29.8        30.0
    10     7  2021   111    2       29.6        32.6        16.4         9.6         9.9         9.9        10.0        10.0        11.1        25.5        29.8        30.0
    11     7  2021   112    2       24.0        30.4        18.2         9.6         9.9         9.9        10.0        10.0        11.1        25.5        29.8        30.0
    12     7  2021   113    2       19.6        30.1        18.5         9.6         9.9         9.9        10.0        10.0        11.1        25.5        29.8        30.0
    13     7  2021   114    2       24.0        29.4        18.6         9.6         9.9         9.9        10.0        10.0        11.1        25.5        29.8        30.0
    14     7  2021   115    2       20.0        29.4        18.6         9.6         9.9         9.9        10.0        10.0        11.1        25.5        29.8        30.0
    15     7  2021   116    2       15.3        29.4        18.6         9.6         9.9         9.9        10.0        10.0        11.1        25.5        29.8        30.0
    16     7  2021   117    2       16.0        29.4        18.6         9.6         9.9         9.9        10.0        10.0        11.1        25.5        29.8        30.0
    17     7  2021   118    2       11.3        29.4        18.6         9.6         9.9         9.9        10.0        10.0        11.1        25.5        29.8        30.0
    18     7  2021   119    2        9.2        26.3        18.6         9.6         9.9         9.9        10.0        10.0        11.1        25.5        29.8        30.0
    19     7  2021   120    2        9.0        22.4        18.6         9.6         9.9         9.9        10.0        10.0        11.1        25.5        29.8        30.0
    20     7  2021   121    2        8.9        18.8        18.6         9.6         9.9         9.9        10.0        10.0        11.1        25.5        29.8        30.0
    21     7  2021   122    2        8.7        15.1        18.6         9.6         9.9         9.9        10.0        10.0        11.1        25.5        29.8        30.0
    22     7  2021   123    2        8.6        11.6        18.6         9.6         9.9         9.9        10.0        10.0        11.1        25.5        29.8        30.0
    23     7  2021   124    2        8.4         9.1        17.1         9.6         9.9         9.9        10.0        10.0        11.1        25.5        29.8        30.0
    24     7  2021   125    2        8.2         9.1        12.5         9.6         9.9         9.9        10.0        10.0        10.9        25.5        29.8        30.0
    25     7  2021   126    2       10.0         9.1        12.5         9.6         9.9         9.9        10.0        10.0        10.9        25.5        29.8        30.0
    26     7  2021   127    2        9.9         9.1         9.5         9.6         9.9         9.9        10.0        10.0        10.3        25.5        29.8        30.0
    27     7  2021   128    3        9.9         9.1         9.5         9.6         9.9         9.9        10.0        10.0        10.0        23.7        29.2        30.0
    28     7  2021   129    3        9.9         9.1         9.5         9.6         9.9         9.9        10.0        10.0        10.0        21.9        28.9        30.0
    29     7  2021   130    3        9.9         9.1         9.5         9.6         9.9         9.9        10.0        10.0        10.0        20.1        28.1        30.0
    30     7  2021   131    3        9.9         9.1         9.5         9.6         9.9         9.9        10.0        10.0        10.0        18.3        27.6        30.0
    31     7  2021   132    3        9.9         9.1         9.5         9.6         9.9         9.9        10.0        10.0        10.0        16.5        27.0        30.0
     1     8  2021   133    3        9.4         9.1         9.5         9.6         9.9         9.9        10.0        10.0        10.0        15.7        27.0        30.0
     2     8  2021   134    3        9.4         9.1         9.5         9.6         9.9         9.9        10.0        10.0        10.0        13.9        27.0        30.0
     3     8  2021   135    3       10.0         9.1         9.5         9.6         9.9         9.9        10.0        10.0        10.0        13.9        27.0        30.0
     4     8  2021   136    3        9.8         9.1         9.5         9.6         9.9         9.9        10.0        10.0        10.0        12.5        27.0        30.0
     5     8  2021   137    3       11.8         9.1         9.5         9.6         9.9         9.9        10.0        10.0        10.0        12.5        27.0        30.0
     6     8  2021   138    3       10.1         9.1         9.5         9.6         9.9         9.9        10.0        10.0        10.0        12.5        27.0        30.0
     7     8  2021   139    3        9.9         9.1         9.5         9.6         9.9         9.9        10.0        10.0        10.0        11.3        26.7        30.0
     8     8  2021   140    3        9.6         9.1         9.5         9.6         9.9         9.9        10.0        10.0        10.0        10.6        25.9        30.0
     9     8  2021   141    3        9.6         9.1         9.5         9.6         9.9         9.9        10.0        10.0        10.0        10.2        25.3        30.0
    10     8  2021   142    3        9.9         9.1         9.5         9.6         9.9         9.9        10.0        10.0        10.0        10.0        24.2        30.0
    11     8  2021   143    4        9.7         9.1         9.5         9.6         9.9         9.9        10.0        10.0        10.0        10.0        23.0        30.0
    12     8  2021   144    4        9.6         9.1         9.5         9.6         9.9         9.9        10.0        10.0        10.0        10.0        21.7        30.0
    13     8  2021   145    4        9.7         9.1         9.5         9.6         9.9         9.9        10.0        10.0        10.0        10.0        20.8        30.0
    14     8  2021   146    4        9.3         9.1         9.5         9.6         9.9         9.9        10.0        10.0        10.0        10.0        19.5        30.0
    15     8  2021   147    4        9.0         9.1         9.5         9.6         9.9         9.9        10.0        10.0        10.0        10.0        18.5        30.0
    16     8  2021   148    4        9.2         9.1         9.5         9.6         9.9         9.9        10.0        10.0        10.0        10.0        17.4        30.0
    17     8  2021   149    4        9.0         9.1         9.5         9.6         9.9         9.9        10.0        10.0        10.0        10.0        16.5        30.0
    18     8  2021   150    4        9.0         9.1         9.5         9.6         9.9         9.9        10.0        10.0        10.0        10.0        15.7        30.0
    19     8  2021   151    4        9.0         9.1         9.5         9.6         9.9         9.9        10.0        10.0        10.0        10.0        15.0        30.0
    20     8  2021   152    4        9.0         9.1         9.5         9.6         9.9         9.9        10.0        10.0        10.0        10.0        14.3        30.0
    21     8  2021   153    4        9.0         9.1         9.5         9.6         9.9         9.9        10.0        10.0        10.0        10.0        13.6        30.0
    22     8  2021   154    4       47.5        34.0         9.5         9.6         9.9         9.9        10.0        10.0        10.0        10.0        13.6        30.0
    23     8  2021   155    4       47.4        34.3        22.4         9.6         9.9         9.9        10.0        10.0        10.0        10.0        13.6        30.0
    24     8  2021   156    4       31.4        34.3        31.6        13.4         9.9         9.9        10.0        10.0        10.0        10.0        13.6        30.0
    25     8  2021   157    4       32.3        31.3        30.9        18.1         9.9         9.9        10.0        10.0        10.0        10.0        13.6        30.0
    26     8  2021   158    4       35.5        30.7        30.5        20.7         9.9         9.9        10.0        10.0        10.0        10.0        13.6        30.0
    27     8  2021   159    4       41.9        31.4        30.7        23.7         9.9         9.9        10.0        10.0        10.0        10.0        13.6        30.0
    28     8  2021   160    4       31.3        32.8        31.5        30.1        10.1         9.9        10.0        10.0        10.0        10.0        13.6        30.0
    29     8  2021   161    4       42.0        30.8        30.6        30.6        13.4         9.9        10.0        10.0        10.0        10.0        13.6        30.0
    30     8  2021   162    4       46.6        32.7        31.5        30.9        19.1         9.9        10.0        10.0        10.0        10.0        13.6        30.0
    31     8  2021   163    4       32.0        33.9        32.2        31.5        29.9         9.9        10.0        10.0        10.0        10.0        13.6        30.0
     1     9  2021   164    4       28.5        31.2        30.9        30.8        30.7        15.3        10.0        10.0        10.0        10.0        13.6        30.0
     2     9  2021   165    4       26.1        30.4        30.3        30.2        30.2        17.8        10.0        10.0        10.0        10.0        13.6        30.0
     3     9  2021   166    4       23.5        30.1        30.1        30.1        30.1        18.5        10.0        10.0        10.0        10.0        13.6        30.0
     4     9  2021   167    4       21.8        30.0        30.0        30.0        30.0        18.8        10.0        10.0        10.0        10.0        13.6        30.0
     5     9  2021   168    4       19.5        30.0        30.0        30.0        30.0        18.8        10.0        10.0        10.0        10.0        13.6        30.0
     6     9  2021   169    4       17.3        30.0        30.0        30.0        30.0        18.9        10.0        10.0        10.0        10.0        13.6        30.0
     7     9  2021   170    4       15.5        30.0        30.0        30.0        30.0        18.9        10.0        10.0        10.0        10.0        13.6        30.0
     8     9  2021   171    4       13.2        30.0        30.0        30.0        30.0        18.9        10.0        10.0        10.0        10.0        13.6        30.0
     9     9  2021   172    4       10.6        30.0        30.0        30.0        30.0        18.9        10.0        10.0        10.0        10.0        13.6        30.0
    10     9  2021   173    4        9.4        29.1        30.0        30.0        30.0        18.9        10.0        10.0        10.0        10.0        13.6        30.0
    11     9  2021   174    4       20.7        29.1        30.0        30.0        30.0        18.9        10.0        10.0        10.0        10.0        13.6        30.0
    12     9  2021   175    4       19.8        29.1        30.0        30.0        30.0        18.9        10.0        10.0        10.0        10.0        13.6        30.0
    13     9  2021   176    4       18.1        29.1        30.0        30.0        30.0        18.9        10.0        10.0        10.0        10.0        13.6        30.0
    14     9  2021   177    4       16.3        29.1        30.0        30.0        30.0        18.9        10.0        10.0        10.0        10.0        13.6        30.0
    15     9  2021   178    4       19.7        29.1        30.0        30.0        30.0        18.9        10.0        10.0        10.0        10.0        13.6        30.0
    16     9  2021   179    4       18.0        29.1        30.0        30.0        30.0        18.9        10.0        10.0        10.0        10.0        13.6        30.0
    17     9  2021   180    4       17.8        29.1        30.0        30.0        30.0        18.9        10.0        10.0        10.0        10.0        13.6        30.0
    18     9  2021   181    4       17.8        29.1        30.0        30.0        30.0        18.9        10.0        10.0        10.0        10.0        13.6        30.0
    19     9  2021   182    4       16.8        29.1        30.0        30.0        30.0        18.9        10.0        10.0        10.0        10.0        13.6        30.0
    20     9  2021   183    4       15.9        29.1        30.0        30.0        30.0        18.9        10.0        10.0        10.0        10.0        13.6        30.0
    21     9  2021   184    4       15.1        29.1        30.0        30.0        30.0        18.9        10.0        10.0        10.0        10.0        13.6        30.0
    22     9  2021   185    4       14.2        29.1        30.0        30.0        30.0        18.9        10.0        10.0        10.0        10.0        13.6        30.0
    23     9  2021   186    4       13.0        29.1        30.0        30.0        30.0        18.9        10.0        10.0        10.0        10.0        13.6        30.0
    24     9  2021   187    4       11.9        29.1        30.0        30.0        30.0        18.9        10.0        10.0        10.0        10.0        13.6        30.0
    25     9  2021   188    4       11.1        29.1        30.0        30.0        30.0        18.9        10.0        10.0        10.0        10.0        13.6        30.0
    26     9  2021   189    4       10.3        29.1        30.0        30.0        30.0        18.9        10.0        10.0        10.0        10.0        13.6        30.0
    27     9  2021   190    4        9.8        29.1        30.0        30.0        30.0        18.9        10.0        10.0        10.0        10.0        13.6        30.0
    28     9  2021   191    4       11.6        29.1        30.0        30.0        30.0        18.9        10.0        10.0        10.0        10.0        13.6        30.0
    29     9  2021   192    4       14.4        29.1        30.0        30.0        30.0        18.9        10.0        10.0        10.0        10.0        13.6        30.0
    30     9  2021   193    4       13.4        29.1        30.0        30.0        30.0        18.9        10.0        10.0        10.0        10.0        13.6        30.0
     1    10  2021   194    4       12.2        29.1        30.0        30.0        30.0        18.9        10.0        10.0        10.0        10.0        13.6        30.0
     2    10  2021   195    4       11.1        29.1        30.0        30.0        30.0        18.9        10.0        10.0        10.0        10.0        13.6        30.0
     3    10  2021   196    4       10.5        29.1        30.0        30.0        30.0        18.9        10.0        10.0        10.0        10.0        13.6        30.0
     4    10  2021   197    4       12.3        29.1        30.0        30.0        30.0        18.9        10.0        10.0        10.0        10.0        13.6        30.0

** Run number:  3
                 at depth (m):      0.05        0.15        0.25        0.35        0.45        0.55        0.67        0.82        0.97        1.13        1.27        1.45
   Day Month  Year   DAP Stage   WC1(vol%)   WC2(vol%)   WC3(vol%)   WC4(vol%)   WC5(vol%)   WC6(vol%)   WC7(vol%)   WC8(vol%)   WC9(vol%)  WC10(vol%)  WC11(vol%)  WC12(vol%)
    22     3  2022     1    1       26.8        30.0        30.0        30.0        30.0        30.0        30.0        30.0        30.0        30.0        30.0        30.0
    23     3  2022     2    1       24.9        30.0        30.0        30.0        30.0        30.0        30.0        30.0        30.0        30.0        30.0        30.0
    24     3  2022     3    1       23.7        30.0        30.0        30.0        30.0        30.0        30.0        30.0        30.0        30.0        30.0        30.0
    25     3  2022     4    1       22.5        30.0        30.0        30.0        30.0        30.0        30.0        30.0        30.0        30.0        30.0        30.0
    26     3  2022     5    1       21.4        30.0        30.0        30.0        30.0        30.0        30.0        30.0        30.0        30.0        30.0        30.0
    27     3  2022     6    1       20.6        30.0        30.0        30.0        30.0        30.0        30.0        30.0        30.0        30.0        30.0        30.0
    28     3  2022     7    1       19.5        30.0        30.0        30.0        30.0        30.0        30.0        30.0        30.0        30.0        30.0        30.0
    29     3  2022     8    1       18.8        30.0        30.0        30.0        30.0        30.0        30.0        30.0        30.0        30.0        30.0        30.0
    30     3  2022     9    1       18.3        30.0        30.0        30.0        30.0        30.0        30.0        30.0        30.0        30.0        30.0        30.0
    31     3  2022    10    1       17.8        30.0        30.0        30.0        30.0        30.0        30.0        30.0        30.0        30.0        30.0        30.0
     1     4  2022    11    1       17.0        30.0        30.0        30.0        30.0        30.0        30.0        30.0        30.0        30.0        30.0        30.0
     2     4  2022    12    1       16.5        30.0        30.0        30.0        30.0        30.0        30.0        30.0        30.0        30.0        30.0        30.0
     3     4  2022    13    1       16.0        30.0        30.0        30.0        30.0        30.0        30.0        30.0        30.0        30.0        30.0        30.0
     4     4  2022    14    2       25.7        30.0        30.0        30.0        30.0        30.0        30.0        30.0        30.0        30.0        30.0        30.0
     5     4  2022    15    2       32.3        30.0        30.0        30.0        30.0        30.0        30.0        30.0        30.0        30.0        30.0        30.0
     6     4  2022    16    2       28.6        30.5        30.2        30.1        30.1        30.1        30.0        30.0        30.0        30.0        30.0        30.0
     7     4  2022    17    2       32.1        30.2        30.1        30.1        30.1        30.1        30.0        30.0        30.0        30.0        30.0        30.0
     8     4  2022    18    2       29.3        30.5        30.3        30.2        30.1        30.1        30.1        30.0        30.0        30.0        30.0        30.0
     9     4  2022    19    2       27.4        30.2        30.1        30.1        30.1        30.1        30.1        30.0        30.0        30.0        30.0        30.0
    10     4  2022    20    2       26.5        30.0        30.0        30.0        30.0        30.0        30.0        30.0        30.0        30.0        30.0        30.0
    11     4  2022    21    2       24.3        30.0        30.0        30.0        30.0        30.0        30.0        30.0        30.0        30.0        30.0        30.0
    12     4  2022    22    2       21.9        30.0        30.0        30.0        30.0        30.0        30.0        30.0        30.0        30.0        30.0        30.0
    13     4  2022    23    2       19.3        30.0        30.0        30.0        30.0        30.0        30.0        30.0        30.0        30.0        30.0        30.0
    14     4  2022    24    2       19.9        30.0        30.0        30.0        30.0        30.0        30.0        30.0        30.0        30.0        30.0        30.0
    15     4  2022    25    2       19.8        30.0        30.0        30.0        30.0        30.0        30.0        30.0        30.0        30.0        30.0        30.0
    16     4  2022    26    2       17.9        30.0        30.0        30.0        30.0        30.0        30.0        30.0        30.0        30.0        30.0        30.0
    17     4  2022    27    2       16.3        30.0        30.0        30.0        30.0        30.0        30.0        30.0        30.0        30.0        30.0        30.0
    18     4  2022    28    2       14.8        30.0        30.0        30.0        30.0        30.0        30.0        30.0        30.0        30.0        30.0        30.0
    19     4  2022    29    2       13.6        30.0        30.0        30.0        30.0        30.0        30.0        30.0        30.0        30.0        30.0        30.0
    20     4  2022    30    2       13.3        30.0        30.0        30.0        30.0        30.0        30.0        30.0        30.0        30.0        30.0        30.0
    21     4  2022    31    2       12.8        30.0        30.0        30.0        30.0        30.0        30.0        30.0        30.0        30.0        30.0        30.0
    22     4  2022    32    2       11.8        30.0        30.0        30.0        30.0        30.0        30.0        30.0        30.0        30.0        30.0        30.0
    23     4  2022    33    2       10.3        30.0        30.0        30.0        30.0        30.0        30.0        30.0        30.0        30.0        30.0        30.0
    24     4  2022    34    2        9.9        29.1        30.0        30.0        30.0        30.0        30.0        30.0        30.0        30.0        30.0        30.0
    25     4  2022    35    2        9.6        28.6        30.0        30.0        30.0        30.0        30.0        30.0        30.0        30.0        30.0        30.0
    26     4  2022    36    2        9.2        27.9        30.0        30.0        30.0        30.0        30.0        30.0        30.0        30.0        30.0        30.0
    27     4  2022    37    2        8.8        26.9        30.0        30.0        30.0        30.0        30.0        30.0        30.0        30.0        30.0        30.0
    28     4  2022    38    2        8.5        25.9        30.0        30.0        30.0        30.0        30.0        30.0        30.0        30.0        30.0        30.0
    29     4  2022    39    2        8.3        24.8        30.0        30.0        30.0        30.0        30.0        30.0        30.0        30.0        30.0        30.0
    30     4  2022    40    2        8.0        23.4        30.0        30.0        30.0        30.0        30.0        30.0        30.0        30.0        30.0        30.0
     1     5  2022    41    2        7.8        22.1        30.0        30.0        30.0        30.0        30.0        30.0        30.0        30.0        30.0        30.0
     2     5  2022    42    2        7.7        20.6        30.0        30.0        30.0        30.0        30.0        30.0        30.0        30.0        30.0        30.0
     3     5  2022    43    2        7.5        19.1        30.0        30.0        30.0        30.0        30.0        30.0        30.0        30.0        30.0        30.0
     4     5  2022    44    2        7.4        17.4        30.0        30.0        30.0        30.0        30.0        30.0        30.0        30.0        30.0        30.0
     5     5  2022    45    2        7.3        15.6        30.0        30.0        30.0        30.0        30.0        30.0        30.0        30.0        30.0        30.0
     6     5  2022    46    2        7.2        13.9        30.0        30.0        30.0        30.0        30.0        30.0        30.0        30.0        30.0        30.0
     7     5  2022    47    2        7.1        11.7        30.0        30.0        30.0        30.0        30.0        30.0        30.0        30.0        30.0        30.0
     8     5  2022    48    2        7.0         9.4        30.0        30.0        30.0        30.0        30.0        30.0        30.0        30.0        30.0        30.0
     9     5  2022    49    2        7.0         9.4        27.6        30.0        30.0        30.0        30.0        30.0        30.0        30.0        30.0        30.0
    10     5  2022    50    2        6.9         9.4        24.2        30.0        30.0        30.0        30.0        30.0        30.0        30.0        30.0        30.0
    11     5  2022    51    2        6.8         9.4        20.0        30.0        30.0        30.0        30.0        30.0        30.0        30.0        30.0        30.0
    12     5  2022    52    2        6.8         9.4        16.9        30.0        30.0        30.0        30.0        30.0        30.0        30.0        30.0        30.0
    13     5  2022    53    2        6.7         9.4        14.0        30.0        30.0        30.0        30.0        30.0        30.0        30.0        30.0        30.0
    14     5  2022    54    2        6.7         9.4        10.8        30.0        30.0        30.0        30.0        30.0        30.0        30.0        30.0        30.0
    15     5  2022    55    2        6.7         9.4         9.6        28.1        30.0        30.0        30.0        30.0        30.0        30.0        30.0        30.0
    16     5  2022    56    2        9.4         9.4         9.6        27.4        30.0        30.0        30.0        30.0        30.0        30.0        30.0        30.0
    17     5  2022    57    2        9.3         9.4         9.6        24.9        30.0        30.0        30.0        30.0        30.0        30.0        30.0        30.0
    18     5  2022    58    2        9.3         9.4         9.6        21.0        29.8        30.0        30.0        30.0        30.0        30.0        30.0        30.0
[...]
    14     6  2024    85    2        9.2         9.5         9.7         9.8        10.0        10.0        24.9        30.0        30.0        30.0        30.0        30.0
    15     6  2024    86    2        9.1         9.5         9.7         9.8        10.0        10.0        23.3        30.0        30.0        30.0        30.0        30.0
    16     6  2024    87    2        8.7         9.5         9.7         9.8        10.0        10.0        20.1        29.5        30.0        30.0        30.0        30.0
    17     6  2024    88    2        9.1         9.5         9.7         9.8        10.0        10.0        17.0        29.5        30.0        30.0        30.0        30.0
    18     6  2024    89    2       15.7         9.5         9.7         9.8        10.0        10.0        16.9        29.5        30.0        30.0        30.0        30.0
    19     6  2024    90    2       16.6         9.5         9.7         9.8        10.0        10.0        16.9        29.5        30.0        30.0        30.0        30.0
    20     6  2024    91    2       12.0         9.5         9.7         9.8        10.0        10.0        16.9        29.5        30.0        30.0        30.0        30.0
    21     6  2024    92    2       10.3         9.5         9.7         9.8        10.0        10.0        16.7        29.5        30.0        30.0        30.0        30.0
    22     6  2024    93    2       23.5         9.5         9.7         9.8        10.0        10.0        16.7        29.5        30.0        30.0        30.0        30.0
    23     6  2024    94    2       18.9         9.5         9.7         9.8        10.0        10.0        16.7        29.5        30.0        30.0        30.0        30.0
    24     6  2024    95    2       13.9         9.5         9.7         9.8        10.0        10.0        16.7        29.5        30.0        30.0        30.0        30.0
    25     6  2024    96    2        9.5         9.5         9.7         9.8        10.0        10.0        15.7        29.5        30.0        30.0        30.0        30.0
    26     6  2024    97    2        9.2         9.5         9.7         9.8        10.0        10.0        12.7        28.0        30.0        30.0        30.0        30.0
    27     6  2024    98    2        9.7         9.5         9.7         9.8        10.0        10.0        10.6        26.9        30.0        30.0        30.0        30.0
    28     6  2024    99    2        9.4         9.5         9.7         9.8        10.0        10.0        10.0        24.1        29.2        30.0        30.0        30.0
    29     6  2024   100    2       12.9         9.5         9.7         9.8        10.0        10.0        10.0        23.3        29.2        30.0        30.0        30.0
    30     6  2024   101    2       12.7         9.5         9.7         9.8        10.0        10.0        10.0        23.3        29.2        30.0        30.0        30.0
     1     7  2024   102    2       23.0         9.5         9.7         9.8        10.0        10.0        10.0        23.3        29.2        30.0        30.0        30.0
     2     7  2024   103    2       20.3         9.5         9.7         9.8        10.0        10.0        10.0        23.3        29.2        30.0        30.0        30.0
     3     7  2024   104    2       16.8         9.5         9.7         9.8        10.0        10.0        10.0        23.3        29.2        30.0        30.0        30.0
     4     7  2024   105    2       18.7         9.5         9.7         9.8        10.0        10.0        10.0        23.3        29.2        30.0        30.0        30.0
     5     7  2024   106    2       14.0         9.5         9.7         9.8        10.0        10.0        10.0        23.3        29.2        30.0        30.0        30.0
     6     7  2024   107    2       16.4         9.5         9.7         9.8        10.0        10.0        10.0        22.2        29.2        30.0        30.0        30.0
     7     7  2024   108    2       11.4         9.5         9.7         9.8        10.0        10.0        10.0        22.2        29.2        30.0        30.0        30.0
     8     7  2024   109    2        9.3         9.5         9.7         9.8        10.0        10.0        10.0        19.7        29.2        30.0        30.0        30.0
     9     7  2024   110    2        9.0         9.5         9.7         9.8        10.0        10.0        10.0        17.0        27.6        30.0        30.0        30.0
    10     7  2024   111    2       25.2         9.5         9.7         9.8        10.0        10.0        10.0        16.8        27.6        30.0        30.0        30.0
    11     7  2024   112    2       43.0         9.5         9.7         9.8        10.0        10.0        10.0        16.8        27.6        30.0        30.0        30.0
    12     7  2024   113    2       43.6        19.1         9.7         9.8        10.0        10.0        10.0        16.8        27.6        30.0        30.0        30.0
    13     7  2024   114    2       29.3        29.1         9.7         9.8        10.0        10.0        10.0        16.8        27.6        30.0        30.0        30.0
    14     7  2024   115    2       24.4        29.1         9.7         9.8        10.0        10.0        10.0        16.8        27.6        30.0        30.0        30.0
    15     7  2024   116    2       19.0        28.8         9.7         9.8        10.0        10.0        10.0        16.8        27.6        30.0        30.0        30.0
    16     7  2024   117    2       13.6        28.7         9.7         9.8        10.0        10.0        10.0        16.8        27.6        30.0        30.0        30.0
    17     7  2024   118    2        9.4        27.7         9.7         9.8        10.0        10.0        10.0        16.8        27.6        30.0        30.0        30.0
    18     7  2024   119    2        9.2        23.0         9.7         9.8        10.0        10.0        10.0        16.8        27.6        30.0        30.0        30.0
    19     7  2024   120    2        9.0        18.1         9.7         9.8        10.0        10.0        10.0        16.5        27.6        30.0        30.0        30.0
    20     7  2024   121    2        8.9        13.1         9.7         9.8        10.0        10.0        10.0        15.8        27.6        30.0        30.0        30.0
    21     7  2024   122    2        8.9         9.7         9.7         9.8        10.0        10.0        10.0        13.9        27.6        30.0        30.0        30.0
    22     7  2024   123    2        8.9         9.7         9.7         9.8        10.0        10.0        10.0        11.6        27.0        30.0        30.0        30.0
    23     7  2024   124    2       10.7         9.7         9.7         9.8        10.0        10.0        10.0        11.5        27.0        30.0        30.0        30.0
    24     7  2024   125    2        8.9         9.7         9.7         9.8        10.0        10.0        10.0        11.3        27.0        30.0        30.0        30.0
    25     7  2024   126    2        8.8         9.7         9.7         9.8        10.0        10.0        10.0        10.1        25.2        30.0        30.0        30.0
    26     7  2024   127    2        9.4         9.7         9.7         9.8        10.0        10.0        10.0        10.0        22.9        29.7        30.0        30.0
    27     7  2024   128    3       41.6         9.7         9.7         9.8        10.0        10.0        10.0        10.0        22.9        29.7        30.0        30.0
    28     7  2024   129    3       29.3        19.9         9.7         9.8        10.0        10.0        10.0        10.0        22.9        29.7        30.0        30.0
    29     7  2024   130    3       24.8        19.9         9.7         9.8        10.0        10.0        10.0        10.0        22.9        29.7        30.0        30.0
    30     7  2024   131    3       19.7        19.9         9.7         9.8        10.0        10.0        10.0        10.0        22.9        29.7        30.0        30.0
    31     7  2024   132    3       14.5        19.9         9.7         9.8        10.0        10.0        10.0        10.0        22.9        29.7        30.0        30.0
     1     8  2024   133    3        9.9        19.8         9.7         9.8        10.0        10.0        10.0        10.0        22.9        29.7        30.0        30.0
     2     8  2024   134    3        9.3        18.1         9.7         9.8        10.0        10.0        10.0        10.0        22.9        29.7        30.0        30.0
     3     8  2024   135    3        9.2        18.1         9.7         9.8        10.0        10.0        10.0        10.0        22.9        29.7        30.0        30.0
     4     8  2024   136    3        9.5        15.5         9.7         9.8        10.0        10.0        10.0        10.0        22.9        29.7        30.0        30.0
     5     8  2024   137    3        9.3        11.6         9.7         9.8        10.0        10.0        10.0        10.0        22.9        29.7        30.0        30.0
     6     8  2024   138    3        9.2         9.2         9.7         9.8        10.0        10.0        10.0        10.0        21.5        29.7        30.0        30.0
     7     8  2024   139    3        9.0         9.2         9.7         9.8        10.0        10.0        10.0        10.0        19.2        28.6        30.0        30.0
     8     8  2024   140    3        8.9         9.2         9.7         9.8        10.0        10.0        10.0        10.0        16.9        28.3        30.0        30.0
     9     8  2024   141    3        8.9         9.2         9.7         9.8        10.0        10.0        10.0        10.0        14.7        27.8        30.0        30.0
    10     8  2024   142    3        8.9         9.2         9.7         9.8        10.0        10.0        10.0        10.0        12.6        27.1        30.0        30.0
    11     8  2024   143    4        8.9         9.2         9.7         9.8        10.0        10.0        10.0        10.0        11.1        26.2        30.0        30.0
    12     8  2024   144    4        8.9         9.2         9.7         9.8        10.0        10.0        10.0        10.0        10.2        24.6        30.0        30.0
    13     8  2024   145    4        8.9         9.2         9.7         9.8        10.0        10.0        10.0        10.0        10.0        22.8        29.1        30.0
    14     8  2024   146    4        8.9         9.2         9.7         9.8        10.0        10.0        10.0        10.0        10.0        21.0        28.3        30.0
    15     8  2024   147    4        8.9         9.2         9.7         9.8        10.0        10.0        10.0        10.0        10.0        19.2        28.1        30.0
    16     8  2024   148    4        8.9         9.2         9.7         9.8        10.0        10.0        10.0        10.0        10.0        17.4        27.7        30.0
    17     8  2024   149    4        8.9         9.2         9.7         9.8        10.0        10.0        10.0        10.0        10.0        15.6        27.6        30.0
    18     8  2024   150    4        8.9         9.2         9.7         9.8        10.0        10.0        10.0        10.0        10.0        14.2        27.6        30.0
    19     8  2024   151    4        8.9         9.2         9.7         9.8        10.0        10.0        10.0        10.0        10.0        12.6        27.6        30.0
    20     8  2024   152    4        9.1         9.2         9.7         9.8        10.0        10.0        10.0        10.0        10.0        11.4        27.1        30.0
    21     8  2024   153    4        8.9         9.2         9.7         9.8        10.0        10.0        10.0        10.0        10.0        10.6        26.3        30.0
    22     8  2024   154    4        8.9         9.2         9.7         9.8        10.0        10.0        10.0        10.0        10.0        10.2        25.3        30.0
    23     8  2024   155    4        8.8         9.2         9.7         9.8        10.0        10.0        10.0        10.0        10.0        10.1        24.0        29.7
    24     8  2024   156    4        8.8         9.2         9.7         9.8        10.0        10.0        10.0        10.0        10.0        10.0        22.7        29.5
    25     8  2024   157    4        8.8         9.2         9.7         9.8        10.0        10.0        10.0        10.0        10.0        10.0        21.3        29.5
    26     8  2024   158    4        8.8         9.2         9.7         9.8        10.0        10.0        10.0        10.0        10.0        10.0        20.3        29.5
    27     8  2024   159    4        8.8         9.2         9.7         9.8        10.0        10.0        10.0        10.0        10.0        10.0        19.2        29.5
    28     8  2024   160    4        8.8         9.2         9.7         9.8        10.0        10.0        10.0        10.0        10.0        10.0        18.0        29.5
    29     8  2024   161    4        8.8         9.2         9.7         9.8        10.0        10.0        10.0        10.0        10.0        10.0        16.9        29.5
    30     8  2024   162    4        8.8         9.2         9.7         9.8        10.0        10.0        10.0        10.0        10.0        10.0        16.0        29.5
    31     8  2024   163    4        8.8         9.2         9.7         9.8        10.0        10.0        10.0        10.0        10.0        10.0        15.3        29.5
     1     9  2024   164    4        8.8         9.2         9.7         9.8        10.0        10.0        10.0        10.0        10.0        10.0        14.5        29.5
     2     9  2024   165    4        8.8         9.2         9.7         9.8        10.0        10.0        10.0        10.0        10.0        10.0        13.8        29.5
     3     9  2024   166    4        8.8         9.2         9.7         9.8        10.0        10.0        10.0        10.0        10.0        10.0        13.0        29.5
     4     9  2024   167    4        8.8         9.2         9.7         9.8        10.0        10.0        10.0        10.0        10.0        10.0        12.1        29.5
     5     9  2024   168    4        8.7         9.2         9.7         9.8        10.0        10.0        10.0        10.0        10.0        10.0        11.4        29.4
     6     9  2024   169    4        8.7         9.2         9.7         9.8        10.0        10.0        10.0        10.0        10.0        10.0        10.8        29.3
     7     9  2024   170    4        8.7         9.2         9.7         9.8        10.0        10.0        10.0        10.0        10.0        10.0        10.5        29.1
     8     9  2024   171    4        8.7         9.2         9.7         9.8        10.0        10.0        10.0        10.0        10.0        10.0        10.2        28.8
     9     9  2024   172    4       20.6         9.2         9.7         9.8        10.0        10.0        10.0        10.0        10.0        10.0        10.2        28.8
    10     9  2024   173    4       18.4         9.2         9.7         9.8        10.0        10.0        10.0        10.0        10.0        10.0        10.2        28.8
    11     9  2024   174    4       16.6         9.2         9.7         9.8        10.0        10.0        10.0        10.0        10.0        10.0        10.2        28.8
    12     9  2024   175    4       15.3         9.2         9.7         9.8        10.0        10.0        10.0        10.0        10.0        10.0        10.2        28.8
    13     9  2024   176    4       25.6         9.2         9.7         9.8        10.0        10.0        10.0        10.0        10.0        10.0        10.2        28.8
    14     9  2024   177    4       23.6         9.2         9.7         9.8        10.0        10.0        10.0        10.0        10.0        10.0        10.2        28.8
    15     9  2024   178    4       30.5         9.2         9.7         9.8        10.0        10.0        10.0        10.0        10.0        10.0        10.2        28.8
    16     9  2024   179    4       31.9         9.5         9.7         9.8        10.0        10.0        10.0        10.0        10.0        10.0        10.2        28.8
    17     9  2024   180    4       28.9        10.8         9.7         9.8        10.0        10.0        10.0        10.0        10.0        10.0        10.2        28.8
    18     9  2024   181    4       27.1        10.8         9.7         9.8        10.0        10.0        10.0        10.0        10.0        10.0        10.2        28.8
    19     9  2024   182    4       25.3        10.8         9.7         9.8        10.0        10.0        10.0        10.0        10.0        10.0        10.2        28.8
    20     9  2024   183    4       23.1        10.8         9.7         9.8        10.0        10.0        10.0        10.0        10.0        10.0        10.2        28.8
    21     9  2024   184    4       21.3        10.8         9.7         9.8        10.0        10.0        10.0        10.0        10.0        10.0        10.2        28.8
    22     9  2024   185    4       20.0        10.8         9.7         9.8        10.0        10.0        10.0        10.0        10.0        10.0        10.2        28.8
    23     9  2024   186    4       18.9        10.8         9.7         9.8        10.0        10.0        10.0        10.0        10.0        10.0        10.2        28.8
    24     9  2024   187    4       26.1        10.8         9.7         9.8        10.0        10.0        10.0        10.0        10.0        10.0        10.2        28.8
    25     9  2024   188    4       25.7        10.8         9.7         9.8        10.0        10.0        10.0        10.0        10.0        10.0        10.2        28.8
    26     9  2024   189    4       26.0        10.8         9.7         9.8        10.0        10.0        10.0        10.0        10.0        10.0        10.2        28.8
    27     9  2024   190    4       24.7        10.8         9.7         9.8        10.0        10.0        10.0        10.0        10.0        10.0        10.2        28.8
    28     9  2024   191    4       24.0        10.8         9.7         9.8        10.0        10.0        10.0        10.0        10.0        10.0        10.2        28.8
    29     9  2024   192    4       23.6        10.8         9.7         9.8        10.0        10.0        10.0        10.0        10.0        10.0        10.2        28.8
    30     9  2024   193    4       23.1        10.8         9.7         9.8        10.0        10.0        10.0        10.0        10.0        10.0        10.2        28.8
     1    10  2024   194    4       29.8        10.8         9.7         9.8        10.0        10.0        10.0        10.0        10.0        10.0        10.2        28.8
     2    10  2024   195    4       32.6        10.8         9.7         9.8        10.0        10.0        10.0        10.0        10.0        10.0        10.2        28.8
     3    10  2024   196    4       31.6        12.8         9.7         9.8        10.0        10.0        10.0        10.0        10.0        10.0        10.2        28.8
     4    10  2024   197    4       31.8        13.9         9.7         9.8        10.0        10.0        10.0        10.0        10.0        10.0        10.2        28.8

Legend

DAP          : Days after planting
Stage        : 0: before/after planting
Stage        : 1: emergence or transplant recovery
Stage        : 2: vegetative stage
Stage        : 3: flowering
Stage        : 4: yield formation and ripening
