AquaCrop 6.1 (May 2018) - Output created on (date) : 5/16/2025   at (time) : 10:14:27 AM
Crop development and production

** Run number:  1
   Day Month  Year   DAP Stage    GD       Z     StExp  StSto  StSen StSalt StWeed   CC      CCw     StTr  Kc(Tr)     Trx      Tr       TrW  Tr/Trx   WP    Biomass     HI  YieldPart  Brelative   WPet
                                °C-day     m       %      %      %      %      %      %       %       %       -        mm       mm       mm    %     g/m2    ton/ha      %    ton/ha       %      kg/m3
    22     3  2020     1    1     0.0    0.30     -9     -9     -9      0     -9     0.0     0.0      0    -9.00      0.0      0.0      0.0   100    16.6     0.000    -9.9    0.000       -9      0.00
    23     3  2020     2    1     0.0    0.30     -9     -9     -9      0     -9     0.0     0.0      0    -9.00      0.0      0.0      0.0   100    16.6     0.000    -9.9    0.000       -9      0.00
    24     3  2020     3    1     0.0    0.30     -9     -9     -9      0     -9     0.0     0.0      0    -9.00      0.0      0.0      0.0   100    16.6     0.000    -9.9    0.000       -9      0.00
    25     3  2020     4    1     1.2    0.30     -9     -9     -9      0     -9     0.0     0.0      0    -9.00      0.0      0.0      0.0   100    16.6     0.000    -9.9    0.000       -9      0.00
    26     3  2020     5    1     3.0    0.30     -9     -9     -9      0     -9     0.0     0.0      0    -9.00      0.0      0.0      0.0   100    16.6     0.000    -9.9    0.000       -9      0.00
    27     3  2020     6    1     8.6    0.30     -9     -9     -9      0     -9     0.0     0.0      0    -9.00      0.0      0.0      0.0   100    16.6     0.000    -9.9    0.000       -9      0.00
    28     3  2020     7    1     6.5    0.30     -9     -9     -9      0     -9     0.0     0.0      0    -9.00      0.0      0.0      0.0   100    16.6     0.000    -9.9    0.000       -9      0.00
    29     3  2020     8    1     0.0    0.31     -9     -9     -9      0     -9     0.0     0.0      0    -9.00      0.0      0.0      0.0   100    16.6     0.000    -9.9    0.000       -9      0.00
    30     3  2020     9    1     0.0    0.35     -9     -9     -9      0     -9     0.0     0.0      0    -9.00      0.0      0.0      0.0   100    16.6     0.000    -9.9    0.000       -9      0.00
    31     3  2020    10    1     0.0    0.38     -9     -9     -9      0     -9     0.0     0.0      0    -9.00      0.0      0.0      0.0   100    16.6     0.000    -9.9    0.000       -9      0.00
     1     4  2020    11    1     1.3    0.40     -9     -9     -9      0     -9     0.0     0.0      0    -9.00      0.0      0.0      0.0   100    16.6     0.000    -9.9    0.000       -9      0.00
     2     4  2020    12    1     4.6    0.43     -9     -9     -9      0     -9     0.0     0.0      0    -9.00      0.0      0.0      0.0   100    16.6     0.000    -9.9    0.000       -9      0.00
     3     4  2020    13    1     6.6    0.45     -9     -9     -9      0     -9     0.0     0.0      0    -9.00      0.0      0.0      0.0   100    16.6     0.000    -9.9    0.000       -9      0.00
     4     4  2020    14    2     5.4    0.47     -9      0      0      0      0     7.1     7.1     72     0.13      0.1      0.1      0.1   100    16.6     0.006    -9.9    0.000      100      0.00
     5     4  2020    15    2     6.8    0.49     -9      0      0      0      0     7.4     7.4     53     0.13      0.2      0.2      0.2   100    16.6     0.016    -9.9    0.000      100      0.00
     6     4  2020    16    2    12.1    0.51     -9      0      0      0      0     7.8     7.8      6     0.14      0.6      0.6      0.6   100    16.6     0.038    -9.9    0.000      100      0.00
     7     4  2020    17    2    11.3    0.53     -9      0      0      0      0     8.2     8.2      9     0.15      0.5      0.5      0.5   100    16.6     0.060    -9.9    0.000      100      0.00
     8     4  2020    18    2    11.8    0.55     -9      0      0      0      0     8.6     8.6      7     0.15      0.5      0.5      0.5   100    16.6     0.084    -9.9    0.000      100      0.00
     9     4  2020    19    2     9.9    0.57      0      0      0      0      0     9.1     9.1     18     0.16      0.4      0.4      0.4   100    16.6     0.106    -9.9    0.000      100      0.00
    10     4  2020    20    2     7.4    0.59      0      0      0      0      0     9.5     9.5     45     0.17      0.2      0.2      0.2   100    16.6     0.121    -9.9    0.000      100      0.00
    11     4  2020    21    2     6.8    0.61      0      0      0      0      0    10.0    10.0     55     0.18      0.2      0.2      0.2   100    16.6     0.134    -9.9    0.000      100      0.00
    12     4  2020    22    2    10.3    0.63      0      0      0      0      0    10.5    10.5     14     0.18      0.7      0.7      0.7   100    16.6     0.160    -9.9    0.000      100      0.00
    13     4  2020    23    2     6.1    0.64      0      0      0      0      0    11.0    11.0     63     0.19      0.2      0.2      0.2   100    16.6     0.172    -9.9    0.000      100      0.00
    14     4  2020    24    2     4.7    0.66      0      0      0      0      0    11.6    11.6     80     0.20      0.1      0.1      0.1   100    16.6     0.179    -9.9    0.000      100      0.00
    15     4  2020    25    2     8.7    0.68      0      0      0      0      0    12.2    12.2     29     0.21      0.5      0.5      0.5   100    16.6     0.204    -9.9    0.000      100      0.00
    16     4  2020    26    2     8.6    0.69      0      0      0      0      0    12.8    12.8     30     0.22      0.6      0.6      0.6   100    16.6     0.230    -9.9    0.000      100      0.00
    17     4  2020    27    2     8.9    0.71      0      0      0      0      0    13.4    13.4     26     0.23      0.5      0.5      0.5   100    16.6     0.258    -9.9    0.000      100      0.00
    18     4  2020    28    2     8.7    0.73      0      0      0      0      0    14.1    14.1     29     0.24      0.6      0.6      0.6   100    16.6     0.287    -9.9    0.000      100      0.00
    19     4  2020    29    2     6.8    0.74      0      0      0      0      0    14.8    14.8     54     0.25      0.4      0.4      0.4   100    16.6     0.306    -9.9    0.000      100      0.00
    20     4  2020    30    2     7.0    0.76      0      0      0      0      0    15.5    15.5     50     0.27      0.5      0.5      0.5   100    16.6     0.328    -9.9    0.000      100      0.00
    21     4  2020    31    2    10.4    0.77      0      0      0      0      0    16.3    16.3     13     0.28      1.0      1.0      1.0   100    16.6     0.368    -9.9    0.000      100      0.00
    22     4  2020    32    2     9.7    0.79      0      0      0      0      0    17.1    17.1     19     0.29      0.9      0.9      0.9   100    16.6     0.407    -9.9    0.000      100      0.00
    23     4  2020    33    2    10.6    0.80      0      0      0      0      0    18.0    18.0     12     0.30      1.0      1.0      1.0   100    16.6     0.451    -9.9    0.000      100      0.00
    24     4  2020    34    2    12.4    0.82      0      0      0      0      0    18.9    18.9      5     0.32      1.4      1.4      1.4   100    16.6     0.501    -9.9    0.000      100      0.00
    25     4  2020    35    2    11.4    0.83      0      0      0      0      0    19.8    19.8      8     0.33      1.0      1.0      1.0   100    16.6     0.551    -9.9    0.000      100      0.00
    26     4  2020    36    2    10.3    0.84      0      0      0      0      0    20.8    20.8     14     0.35      1.0      1.0      1.0   100    16.6     0.600    -9.9    0.000      100      0.00
    27     4  2020    37    2    11.1    0.86      0      0      0      0      0    21.9    21.9      9     0.36      1.4      1.4      1.4   100    16.6     0.654    -9.9    0.000      100      0.00
    28     4  2020    38    2    13.9    0.87      0      0      0      0      0    23.0    23.0      2     0.38      1.7      1.7      1.7   100    16.6     0.715    -9.9    0.000      100      0.00
    29     4  2020    39    2    13.3    0.89      0      0      0      0      0    24.1    24.1      3     0.39      0.9      0.9      0.9   100    16.6     0.778    -9.9    0.000      100      0.00
    30     4  2020    40    2    12.9    0.90      0      0      0      0      0    25.4    25.4      4     0.41      1.3      1.3      1.3   100    16.6     0.843    -9.9    0.000      100      0.00
     1     5  2020    41    2    13.2    0.91      0      0      0      0      0    26.6    26.6      3     0.43      1.6      1.6      1.6   100    16.6     0.912    -9.9    0.000      100      0.00
     2     5  2020    42    2    10.1    0.93      0      0      0      0      0    28.0    28.0     16     0.44      0.9      0.9      0.9   100    16.6     0.974    -9.9    0.000      100      0.00
     3     5  2020    43    2     8.7    0.94      0      0      0      0      0    29.4    29.4     29     0.46      0.9      0.9      0.9   100    16.6     1.028    -9.9    0.000      100      0.00
     4     5  2020    44    2     7.7    0.95      0      0      0      0      0    30.8    30.8     41     0.48      0.7      0.7      0.7   100    16.6     1.075    -9.9    0.000      100      0.00
     5     5  2020    45    2     7.4    0.97      0      0      0      0      0    32.4    32.4     46     0.50      0.7      0.7      0.7   100    16.6     1.120    -9.9    0.000      100      0.00
     6     5  2020    46    2     9.9    0.98      0      0      0      0      0    34.0    34.0     17     0.52      1.7      1.7      1.7   100    16.6     1.191    -9.9    0.000      100      0.00
     7     5  2020    47    2    10.0    0.99      0      0      0      0      0    35.7    35.7     16     0.54      1.5      1.5      1.5   100    16.6     1.267    -9.9    0.000      100      0.00
     8     5  2020    48    2    12.9    1.00      0      0      0      0      0    37.5    37.5      4     0.57      2.4      2.4      2.4   100    16.6     1.357    -9.9    0.000      100      0.00
     9     5  2020    49    2    13.4    1.02      1      0      0      0      0    39.4    39.4      3     0.59      2.7      2.7      2.7   100    16.6     1.451    -9.9    0.000      100      0.00
    10     5  2020    50    2    14.8    1.03      1      0      0      0      0    41.4    41.4      0     0.61      2.7      2.7      2.7   100    16.6     1.552    -9.9    0.000      100      0.00
    11     5  2020    51    2     7.4    1.04      0      0      0      0      0    43.4    43.4     45     0.63      0.9      0.9      0.9   100    16.6     1.610    -9.9    0.000      100      0.00
    12     5  2020    52    2     4.9    1.05      0      0      0      0      0    45.6    45.6     78     0.66      0.4      0.4      0.4   100    16.6     1.633    -9.9    0.000      100      0.00
    13     5  2020    53    2     7.0    1.07      0      0      0      0      0    47.9    47.9     51     0.68      1.0      1.0      1.0   100    16.6     1.689    -9.9    0.000      100      0.00
    14     5  2020    54    2     7.7    1.08      0      0      0      0      0    50.2    50.2     41     0.71      1.3      1.3      1.3   100    16.6     1.757    -9.9    0.000      100      0.00
    15     5  2020    55    2     7.0    1.09      0      0      0      0      0    52.3    52.3     51     0.73      1.3      1.3      1.3   100    16.6     1.816    -9.9    0.000      100      0.00
    16     5  2020    56    2    10.8    1.10      0      0      0      0      0    54.4    54.4     11     0.75      2.6      2.6      2.6   100    16.6     1.926    -9.9    0.000      100      0.00
    17     5  2020    57    2    12.0    1.11      1      0      0      0      0    56.3    56.3      6     0.77      3.1      3.1      3.1   100    16.6     2.046    -9.9    0.000      100      0.00
    18     5  2020    58    2    15.3    1.13      1      0      0      0      0    58.1    58.1      0     0.78      4.0      4.0      4.0   100    16.6     2.175    -9.9    0.000      100      0.00
    19     5  2020    59    2    14.3    1.14      1      0      0      0      0    59.9    59.9      0     0.80      3.3      3.3      3.3   100    16.6     2.308    -9.9    0.000      100      0.00
    20     5  2020    60    2    13.2    1.15      1      0      0      0      0    61.5    61.5      3     0.81      3.2      3.2      3.2   100    16.6     2.438    -9.9    0.000      100      0.00
    21     5  2020    61    2    11.7    1.16      2      0      0      0      0    63.1    63.1      7     0.83      3.5      3.5      3.5   100    16.6     2.566    -9.9    0.000      100      0.00
    22     5  2020    62    2    13.8    1.17      2      0      0      0      0    64.6    64.6      2     0.84      4.3      4.3      4.3   100    16.6     2.702    -9.9    0.000      100      0.00
    23     5  2020    63    2    14.8    1.18      1      0      0      0      0    66.1    66.1      0     0.85      2.9      2.9      2.9   100    16.6     2.843    -9.9    0.000      100      0.00
    24     5  2020    64    2    12.6    1.19      0      0      0      0      0    67.4    67.4      4     0.87      2.6      2.6      2.6   100    16.6     2.981    -9.9    0.000      100      0.00
    25     5  2020    65    2    11.4    1.21      0      0      0      0      0    68.8    68.8      8     0.88      1.6      1.6      1.6   100    16.6     3.114    -9.9    0.000      100      0.00
    26     5  2020    66    2    12.9    1.22      1      0      0      0      0    70.0    70.0      4     0.89      3.4      3.4      3.4   100    16.6     3.255    -9.9    0.000      100      0.00
    27     5  2020    67    2    13.3    1.23      1      0      0      0      0    71.2    71.2      3     0.90      3.9      3.9      3.9   100    16.6     3.399    -9.9    0.000      100      0.00
    28     5  2020    68    2    14.2    1.24      1      0      0      0      0    72.3    72.3      0     0.91      3.7      3.7      3.7   100    16.6     3.549    -9.9    0.000      100      0.00
    29     5  2020    69    2    12.3    1.25      2      0      0      0      0    73.4    73.4      5     0.92      3.7      3.7      3.7   100    16.6     3.693    -9.9    0.000      100      0.00
    30     5  2020    70    2    13.4    1.26      2      0      0      0      0    74.4    74.4      3     0.92      3.5      3.5      3.5   100    16.6     3.842    -9.9    0.000      100      0.00
    31     5  2020    71    2    15.5    1.27      3      0      0      0      0    75.4    75.4      0     0.93      4.4      4.4      4.4   100    16.6     3.996    -9.9    0.000      100      0.00
     1     6  2020    72    2    14.5    1.28      5      0      0      0      0    76.3    76.3      0     0.94      4.9      4.9      4.9   100    16.6     4.151    -9.9    0.000      100      0.00
     2     6  2020    73    2    15.8    1.29      7      0      0      0      0    77.1    77.1      0     0.94      5.4      5.4      5.4   100    16.6     4.308    -9.9    0.000      100      0.00
     3     6  2020    74    2    16.2    1.30      7      0      0      0      0    77.9    77.9      0     0.95      5.0      5.0      5.0   100    16.6     4.465    -9.9    0.000      100      0.00
     4     6  2020    75    2    17.1    1.32      7      0      0      0      0    78.6    78.6      0     0.96      4.8      4.8      4.8   100    16.6     4.623    -9.9    0.000      100      0.00
     5     6  2020    76    2    14.5    1.33      5      0      0      0      0    79.4    79.4      0     0.96      3.3      3.3      3.3   100    16.6     4.783    -9.9    0.000      100      0.00
     6     6  2020    77    2    13.9    1.34      8      0      0      0      0    80.1    80.1      2     0.97      4.3      4.3      4.3   100    16.6     4.939    -9.9    0.000      100      0.00
     7     6  2020    78    2    14.2    1.35      7      0      0      0      0    80.7    80.7      0     0.97      3.5      3.5      3.5   100    16.6     5.100    -9.9    0.000      100      0.00
     8     6  2020    79    2    15.1    1.36     12      0      0      0      0    81.3    81.3      0     0.98      4.6      4.6      4.6   100    16.6     5.262    -9.9    0.000      100      0.00
     9     6  2020    80    2    16.0    1.37     11      0      0      0      0    81.9    81.9      0     0.98      3.9      3.9      3.9   100    16.6     5.424    -9.9    0.000      100      0.00
    10     6  2020    81    2    16.6    1.38     14      0      0      0      0    82.4    82.4      0     0.98      4.4      4.4      4.4   100    16.6     5.588    -9.9    0.000      100      0.00
    11     6  2020    82    2    19.2    1.39     11      0      0      0      0    82.9    82.9      0     0.99      3.4      3.4      3.4   100    16.6     5.751    -9.9    0.000      100      0.00
    12     6  2020    83    2    20.5    1.40     15      0      0      0      0    83.4    83.4      0     0.99      4.4      4.4      4.4   100    16.6     5.916    -9.9    0.000      100      0.00
    13     6  2020    84    2    21.7    1.41     24      0      0      0      0    83.8    83.8      0     1.00      5.7      5.7      5.7   100    16.6     6.080    -9.9    0.000      100      0.00
    14     6  2020    85    2    19.1    1.42     23      0      0      0      0    84.2    84.2      0     1.00      4.9      4.9      4.9   100    16.6     6.245    -9.9    0.000       99      0.00
    15     6  2020    86    2    17.9    1.43     30      0      0      0      0    84.5    84.5      0     1.00      5.2      5.2      5.2   100    16.6     6.411    -9.9    0.000       99      0.00
    16     6  2020    87    2    17.2    1.44     36      0      0      0      0    84.8    84.8      0     1.00      5.2      5.2      5.2   100    16.6     6.577    -9.9    0.000       99      0.00
    17     6  2020    88    2    18.4    1.45     46      0      0      0      0    85.0    85.0      0     1.00      5.5      5.5      5.5   100    16.6     6.743    -9.9    0.000       99      0.00
    18     6  2020    89    2    21.6    1.46     43      0      0      0      0    85.2    85.2      0     1.01      4.8      4.8      4.8   100    16.6     6.910    -9.9    0.000       99      0.00
    19     6  2020    90    2    18.9    1.47     24      0      0      0      0    85.5    85.5      0     1.01      2.6      2.6      2.6   100    16.6     7.077    -9.9    0.000       99      0.00
    20     6  2020    91    2    18.6    1.48     36      0      0      0      0    85.8    85.8      0     1.01      3.7      3.7      3.7   100    16.6     7.244    -9.9    0.000       99      0.00
    21     6  2020    92    2    18.3    1.49     55      0      0      0      0    85.9    85.9      0     1.01      4.8      4.8      4.8   100    16.6     7.411    -9.9    0.000       99      0.00
    22     6  2020    93    2    17.8    1.50     87      0      0      0      0    85.9    85.9      0     1.01      5.9      5.9      5.9   100    16.6     7.578    -9.9    0.000       99      0.00
    23     6  2020    94    2    16.6    1.50     97      0      0      0      0    85.9    85.9      0     1.01      5.5      5.5      5.5   100    16.6     7.746    -9.9    0.000       99      0.00
    24     6  2020    95    2    16.4    1.50    100      1      0      0      0    85.9    85.9      0     1.01      5.1      5.0      5.0    99    16.6     7.911    -9.9    0.000       99      0.00
    25     6  2020    96    2    21.1    1.50    100     11      0      0      0    85.9    85.9      0     1.01      5.8      5.2      5.2    89    16.6     8.060    -9.9    0.000       99      0.00
    26     6  2020    97    2    19.4    1.50    100      9      0      0      0    85.9    85.9      0     1.01      5.3      4.8      4.8    91    16.6     8.213    -9.9    0.000       99      0.00
    27     6  2020    98    2    19.9    1.50    100     19      1      0      0    85.9    85.9      0     1.01      6.4      5.1      5.1    81    16.6     8.348    -9.9    0.000       98      0.00
    28     6  2020    99    2    21.5    1.50    100     19      1      0      0    85.9    85.9      0     1.01      5.4      4.4      4.4    81    16.6     8.484    -9.9    0.000       98      0.00
    29     6  2020   100    2    17.6    1.50    100     14      0      0      0    85.9    85.9      0     1.01      4.4      3.8      3.8    86    16.6     8.628    -9.9    0.000       98      0.00
    30     6  2020   101    2    17.6    1.50    100     27      4      0      0    85.8    85.8      0     1.01      6.0      4.4      4.4    73    16.6     8.751    -9.9    0.000       97      0.00
     1     7  2020   102    2    21.1    1.50     15      0      0      0      0    86.1    86.1      0     1.01      5.0      5.0      5.0   100    16.6     8.918    -9.9    0.000       97      0.00
     2     7  2020   103    2    20.6    1.50    100     14      0      0      0    86.1    86.1      0     1.01      4.3      3.6      3.6    86    16.6     9.062    -9.9    0.000       97      0.00
     3     7  2020   104    2    17.9    1.50    100     21      2      0      0    86.0    86.0      0     1.01      4.7      3.7      3.7    79    16.6     9.194    -9.9    0.000       96      0.00
     4     7  2020   105    2    18.1    1.50    100     31      6      0      0    85.9    85.9      0     1.01      6.0      4.1      4.1    69    16.6     9.310    -9.9    0.000       96      0.00
     5     7  2020   106    2    22.3    1.50    100     34      7      0      0    85.8    85.8      0     1.01      6.2      4.1      4.1    66    16.6     9.420    -9.9    0.000       95      0.00
     6     7  2020   107    2    17.1    1.50    100     33      7      0      0    85.6    85.6      0     1.00      5.2      3.5      3.5    67    16.6     9.530    -9.9    0.000       95      0.00
     7     7  2020   108    2    15.9    1.50    100     34      7      0      0    85.5    85.5      0     1.00      4.6      3.1      3.1    66    16.6     9.640    -9.9    0.000       94      0.00
     8     7  2020   109    2    14.6    1.50    100     25      3      0      0    85.4    85.4      0     1.00      2.6      2.0      2.0    75    16.6     9.765    -9.9    0.000       94      0.00
     9     7  2020   110    2    16.8    1.50     47      0      0      0      0    85.5    85.5      0     1.00      3.6      3.6      3.6   100    16.6     9.931    -9.9    0.000       94      0.00
    10     7  2020   111    2    18.1    1.50    100     37      8      0      0    85.4    85.4      0     1.00      5.3      3.4      3.4    63    16.6    10.036    -9.9    0.000       93      0.00
    11     7  2020   112    2    14.6    1.50    100     34      7      0      0    85.2    85.2      0     1.00      4.1      2.7      2.7    66    16.6    10.144    -9.9    0.000       93      0.00
    12     7  2020   113    2    14.4    1.50    100     38      9      0      0    85.0    85.0      0     0.99      4.4      2.7      2.7    62    16.6    10.245    -9.9    0.000       92      0.00
    13     7  2020   114    2    14.8    1.50    100     43     12      0      0    84.8    84.8      0     0.99      4.7      2.7      2.7    57    16.6    10.339    -9.9    0.000       92      0.00
    14     7  2020   115    2    17.9    1.50    100     50     17      0      0    84.5    84.5      0     0.98      6.0      3.0      3.0    50    16.6    10.420    -9.9    0.000       91      0.00
    15     7  2020   116    2    16.9    1.50      0      0      0      0      0    84.8    84.8      0     0.99      2.6      2.6      2.6   100    16.6    10.584    -9.9    0.000       91      0.00
    16     7  2020   117    2    16.3    1.50      0      0      0      0      0    85.2    85.2      0     0.99      3.5      3.5      3.5   100    16.6    10.748    -9.9    0.000       91      0.00
    17     7  2020   118    2    14.4    1.50      3      0      0      0      0    85.4    85.4      0     1.00      3.5      3.5      3.5   100    16.6    10.914    -9.9    0.000       91      0.00
    18     7  2020   119    2    17.5    1.50     40      0      0      0      0    85.6    85.6      0     1.00      4.8      4.8      4.8   100    16.6    11.080    -9.9    0.000       91      0.00
    19     7  2020   120    2    19.1    1.50    100     38      6      0      0    85.4    85.4      0     1.00      5.5      3.4      3.4    62    16.6    11.183    -9.9    0.000       91      0.00
    20     7  2020   121    2    17.9    1.50    100     47     14      0      0    85.2    85.2      0     0.99      4.8      2.5      2.5    53    16.6    11.270    -9.9    0.000       90      0.00
    21     7  2020   122    2    16.6    1.50    100     50     16      0      0    84.9    84.9      0     0.99      4.7      2.3      2.3    50    16.6    11.352    -9.9    0.000       89      0.00
    22     7  2020   123    2    14.9    1.50    100     50     16      0      0    84.6    84.6      0     0.98      4.2      2.1      2.1    50    16.6    11.434    -9.9    0.000       89      0.00
    23     7  2020   124    2    16.3    1.50    100     51     17      0      0    84.3    84.3      0     0.98      3.8      1.9      1.9    49    16.6    11.513    -9.9    0.000       88      0.00
    24     7  2020   125    2    17.1    1.50    100     60     26      0      0    83.9    83.9      0     0.97      6.1      2.4      2.4    40    16.6    11.577    -9.9    0.000       87      0.00
    25     7  2020   126    2    18.2    1.50    100     58     23      0      0    83.5    83.5      0     0.96      4.5      1.9      1.9    42    16.6    11.644    -9.9    0.000       87      0.00
    26     7  2020   127    2    18.5    1.50    100     55     20      0      0    83.1    83.1      0     0.95      3.3      1.5      1.5    45    16.6    11.715    -9.9    0.000       86      0.00
    27     7  2020   128    3    18.4    1.50    100     60     25      0      0    82.6    82.6      0     0.94      4.3      1.7      1.7    40    16.6    11.778    -9.9    0.000       86      0.00
    28     7  2020   129    3    21.8    1.50    100     66     32      0      0    82.1    82.1      0     0.93      5.7      1.9      1.9    34    16.6    11.830    -9.9    0.000       85      0.00
    29     7  2020   130    3    17.0    1.50    100     66     32      0      0    81.5    81.5      0     0.92      4.9      1.6      1.6    34    16.6    11.881    -9.9    0.000       84      0.00
    30     7  2020   131    3    15.8    1.50    100     67     33      0      0    80.9    80.9      0     0.91      4.5      1.5      1.5    33    16.6    11.931     1.3    0.158       83      0.04
    31     7  2020   132    3    17.0    1.50    100     68     35      0      0    80.2    80.2      0     0.89      4.4      1.4      1.4    32    16.6    11.977     1.5    0.177       83      0.05
     1     8  2020   133    3    17.1    1.50    100     73     41      0      0    79.5    79.5      0     0.88      5.5      1.5      1.5    27    16.6    12.017     1.6    0.198       82      0.05
     2     8  2020   134    3    21.3    1.50    100     67     32      0      0    78.7    78.7      0     0.87      3.1      1.0      1.0    33    16.6    12.065     1.8    0.222       81      0.06
     3     8  2020   135    3    16.4    1.50    100     69     34      0      0    77.8    77.8      0     0.85      3.1      1.0      1.0    31    16.6    12.109     2.1    0.249       81      0.06
     4     8  2020   136    3    15.7    1.50     -9     71     37      0      0    76.9    76.9      0     0.83      3.3      1.0      1.0    29    16.6    12.148     2.3    0.279       80      0.07
     5     8  2020   137    3    16.2    1.50     -9     75     44      0      0    75.9    75.9      0     0.81      4.4      1.1      1.1    25    16.6    12.182     2.6    0.311       79      0.08
     6     8  2020   138    3    19.5    1.50     -9     77     47      0      0    74.8    74.8      0     0.79      4.8      1.1      1.1    23    16.6    12.212     2.8    0.346       79      0.09
     7     8  2020   139    3    20.3    1.50     -9     77     48      0      0    73.6    73.6      0     0.77      4.4      1.0      1.0    23    16.6    12.241     3.1    0.386       78      0.10
     8     8  2020   140    3    21.3    1.50     -9     79     50      0      0    72.4    72.4      0     0.75      4.6      1.0      1.0    21    16.6    12.268     3.5    0.429       77      0.11
     9     8  2020   141    3    21.3    1.50     -9     80     52      0      0    71.0    71.0      0     0.73      4.7      1.0      1.0    20    16.6    12.292     3.9    0.476       77      0.12
    10     8  2020   142    3    22.6    1.50     -9     76     43      0      0    69.5    69.5      0     0.70      2.7      0.7      0.7    24    16.6    12.320     4.3    0.530       76      0.13
    11     8  2020   143    4    20.9    1.50     -9     80     52      0      0    67.9    67.9      0     0.67      4.1      0.8      0.8    20    16.6    12.342     4.8    0.587       75      0.15
    12     8  2020   144    4    21.3    1.50     -9     80     53      0      0    66.2    66.2      0     0.64      3.7      0.7      0.7    20    16.6    12.363     5.3    0.651       75      0.16
    13     8  2020   145    4    21.5    1.50     -9     80     52      0      0    64.3    64.3      0     0.61      3.0      0.6      0.6    20    16.6    12.384     5.8    0.720       74      0.18
    14     8  2020   146    4    22.1    1.50     -9     79     49      0      0    62.3    62.3      0     0.58      2.3      0.5      0.5    21    16.6    12.404     6.4    0.796       73      0.20
    15     8  2020   147    4    21.4    1.50     -9     79     51      0      0    60.2    60.2      0     0.55      2.2      0.5      0.5    21    16.6    12.423     7.1    0.878       73      0.22
    16     8  2020   148    4    21.2    1.50     -9     82     56      0      0    57.9    57.9      0     0.51      2.8      0.5      0.5    18    16.6    12.438     7.8    0.966       72      0.24
    17     8  2020   149    4    20.0    1.50     -9     82     54      0      0    55.3    55.3      0     0.47      2.6      0.5      0.5    18    16.6    12.452     8.5    1.060       71      0.26
    18     8  2020   150    4    21.4    1.50     -9     78     47      0      0    52.6    52.6      0     0.43      1.4      0.3      0.3    22    16.6    12.467     9.3    1.156       71      0.29
    19     8  2020   151    4    19.6    1.50     -9     80     51      0      0    49.7    49.7      0     0.39      1.5      0.3      0.3    20    16.6    12.480    10.0    1.250       70      0.31
    20     8  2020   152    4    19.6    1.50     -9     82     57      0      0    46.5    46.5      0     0.35      1.8      0.3      0.3    18    16.6    12.490    10.8    1.344       70      0.33
    21     8  2020   153    4    22.6    1.50     -9     85     59      0      0    43.1    43.1      0     0.31      2.1      0.3      0.3    15    16.6    12.498    11.5    1.437       69      0.35
    22     8  2020   154    4    20.7    1.50     -9     73     14      0      0    40.6    40.6      0     0.27      0.9      0.2      0.2    27    16.6    12.510    12.3    1.533       68      0.38
    23     8  2020   155    4    18.8    1.50     -9     78     46      0      0    36.7    36.7      0     0.23      0.9      0.2      0.2    22    16.6    12.519    13.0    1.629       68      0.40
    24     8  2020   156    4    18.4    1.50     -9     78     48      0      0    32.6    32.6      0     0.18      0.7      0.2      0.2    22    16.6    12.525    13.8    1.725       67      0.42
    25     8  2020   157    4    17.6    1.50     -9     78     49      0      0    28.1    28.1      0     0.14      0.5      0.1      0.1    22    16.6    12.531    14.5    1.820       67      0.44
    26     8  2020   158    4    19.0    1.50     -9     79     18      0      0    24.2    24.2      0     0.11      0.5      0.1      0.1    21    16.6    12.534    15.3    1.915       66      0.46
    27     8  2020   159    4    14.6    1.50     -9     78     47      0      0    19.1    19.1      0     0.07      0.3      0.1      0.1    22    16.6    12.537    16.0    2.010       65      0.49
    28     8  2020   160    4    17.1    1.50     -9     77     19      0      0    14.6    14.6      0     0.04      0.1      0.0      0.0    23    16.6    12.538    16.8    2.105       65      0.51
    29     8  2020   161    4    18.9    1.50     -9     78     49      0      0     8.7     8.7      0     0.01      0.1      0.0      0.0    22    16.6    12.539    17.5    2.199       64      0.53
    30     8  2020   162    4    18.5    1.50     -9      0      0      0      0     8.6     8.6      0     0.01      0.0      0.0      0.0   100    16.6    12.541    18.4    2.306       64      0.55
    31     8  2020   163    4    16.3    1.50     -9      0     -9      0      0     8.6     8.6      0     0.01      0.0      0.0      0.0   100    16.6    12.544    19.2    2.413       63      0.58
     1     9  2020   164    4    12.4    1.50     -9      0     -9      0      0     8.5     8.5      5     0.01      0.0      0.0      0.0   100    16.6    12.546    20.1    2.520       63      0.60
     2     9  2020   165    4    12.3    1.50     -9      0     -9      0      0     8.5     8.5      5     0.01      0.0      0.0      0.0   100    16.6    12.548    20.9    2.628       62      0.62
     3     9  2020   166    4    17.4    1.50     -9      0     -9      0      0     8.4     8.4      0     0.01      0.0      0.0      0.0   100    16.6    12.550    21.8    2.735       62      0.65
     4     9  2020   167    4    19.2    1.50     -9      0     -9      0      0     8.4     8.4      0     0.01      0.0      0.0      0.0   100    16.6    12.553    22.7    2.843       61      0.67
     5     9  2020   168    4    14.2    1.50     -9      0     -9      0      0     8.3     8.3      0     0.01      0.0      0.0      0.0   100    16.6    12.555    23.5    2.951       61      0.69
     6     9  2020   169    4    13.1    1.50     -9      0     -9      0      0     8.2     8.2      3     0.01      0.0      0.0      0.0   100    16.6    12.557    24.4    3.060       61      0.72
     7     9  2020   170    4    13.6    1.50     -9      0     -9      0      0     8.2     8.2      3     0.01      0.0      0.0      0.0   100    16.6    12.559    25.2    3.168       60      0.74
     8     9  2020   171    4    14.6    1.50     -9      0     -9      0      0     8.1     8.1      0     0.01      0.0      0.0      0.0   100    16.6    12.561    26.1    3.277       60      0.76
     9     9  2020   172    4    18.6    1.50     -9      0     -9      0      0     8.0     8.0      0     0.01      0.0      0.0      0.0   100    16.6    12.563    26.9    3.386       59      0.79
    10     9  2020   173    4    12.8    1.50     -9      0     -9      0      0     7.9     7.9      4     0.01      0.0      0.0      0.0   100    16.6    12.565    27.8    3.495       59      0.81
    11     9  2020   174    4    14.1    1.50     -9      0     -9      0      0     7.8     7.8      0     0.01      0.0      0.0      0.0   100    16.6    12.567    28.7    3.604       59      0.83
    12     9  2020   175    4    16.1    1.50     -9      0     -9      0      0     7.7     7.7      0     0.01      0.0      0.0      0.0   100    16.6    12.569    29.5    3.713       58      0.86
    13     9  2020   176    4    16.9    1.50     -9      0     -9      0      0     7.6     7.6      0     0.01      0.0      0.0      0.0   100    16.6    12.571    30.4    3.822       58      0.88
    14     9  2020   177    4    17.0    1.50     -9      0     -9      0      0     7.4     7.4      0     0.01      0.0      0.0      0.0   100    16.6    12.573    31.3    3.932       58      0.90
    15     9  2020   178    4    19.4    1.50     -9      0     -9      0      0     7.3     7.3      0     0.01      0.0      0.0      0.0   100    16.6    12.575    32.1    4.041       57      0.93
    16     9  2020   179    4    18.6    1.50     -9      0     -9      0      0     7.2     7.2      0     0.01      0.0      0.0      0.0   100    16.6    12.576    33.0    4.151       57      0.95
    17     9  2020   180    4    11.5    1.50     -9      0     -9      0      0     7.0     7.0      8     0.01      0.0      0.0      0.0   100    16.6    12.578    33.9    4.260       57      0.98
    18     9  2020   181    4    10.4    1.50     -9      0     -9      0      0     6.8     6.8     13     0.01      0.0      0.0      0.0   100    16.6    12.579    34.7    4.370       56      1.00
    19     9  2020   182    4    10.8    1.50     -9      0     -9      0      0     6.7     6.7     11     0.01      0.0      0.0      0.0   100    16.6    12.580    35.6    4.480       56      1.03
    20     9  2020   183    4    14.3    1.50     -9      0     -9      0      0     6.5     6.5      0     0.01      0.0      0.0      0.0   100    16.6    12.582    36.5    4.590       56      1.05
    21     9  2020   184    4    14.7    1.50     -9      0     -9      0      0     6.2     6.2      0     0.01      0.0      0.0      0.0   100    16.6    12.583    37.3    4.700       56      1.07
    22     9  2020   185    4    17.1    1.50     -9      0     -9      0      0     6.0     6.0      0     0.01      0.0      0.0      0.0   100    16.6    12.584    38.2    4.810       55      1.10
    23     9  2020   186    4    18.4    1.50     -9      0     -9      0      0     5.8     5.8      0     0.01      0.0      0.0      0.0   100    16.6    12.585    39.1    4.920       55      1.12
    24     9  2020   187    4    17.1    1.50     -9      0     -9      0      0     5.5     5.5      0     0.01      0.0      0.0      0.0   100    16.6    12.586    40.0    5.030       55      1.14
    25     9  2020   188    4    13.1    1.50     -9      0     -9      0      0     5.2     5.2      3     0.01      0.0      0.0      0.0   100    16.6    12.587    40.8    5.140       55      1.17
    26     9  2020   189    4     8.7    1.50     -9      0     -9      0      0     4.9     4.9     29     0.00      0.0      0.0      0.0   100    16.6    12.587    41.7    5.250       55      1.19
    27     9  2020   190    4     9.3    1.50     -9      0     -9      0      0     4.6     4.6     23     0.00      0.0      0.0      0.0   100    16.6    12.588    41.8    5.262       55      1.19
    28     9  2020   191    4    12.7    1.50     -9      0     -9      0      0     4.2     4.2      4     0.00      0.0      0.0      0.0   100    16.6    12.589    41.9    5.269       55      1.19
    29     9  2020   192    4    12.3    1.50     -9      0     -9      0      0     3.9     3.9      5     0.00      0.0      0.0      0.0   100    16.6    12.589    41.9    5.276       55      1.19
    30     9  2020   193    4    12.2    1.50     -9      0     -9      0      0     3.5     3.5      6     0.00      0.0      0.0      0.0   100    16.6    12.589    42.0    5.282       54      1.19
     1    10  2020   194    4    10.6    1.50     -9      0     -9      0      0     3.0     3.0     12     0.00      0.0      0.0      0.0   100    16.6    12.590    42.0    5.289       54      1.19
     2    10  2020   195    4    13.2    1.50     -9      0     -9      0      0     2.5     2.5      3     0.00      0.0      0.0      0.0   100    16.6    12.590    42.1    5.295       54      1.18
     3    10  2020   196    4    17.4    1.50     -9      0     -9      0      0     2.0     2.0      0     0.00      0.0      0.0      0.0   100    16.6    12.590    42.1    5.295       54      1.18
     4    10  2020   197    4    12.1    1.50     -9      0     -9      0      0     1.5     1.5      6     0.00      0.0      0.0      0.0   100    16.6    12.590    42.1    5.295       54      1.18

** Run number:  2
   Day Month  Year   DAP Stage    GD       Z     StExp  StSto  StSen StSalt StWeed   CC      CCw     StTr  Kc(Tr)     Trx      Tr       TrW  Tr/Trx   WP    Biomass     HI  YieldPart  Brelative   WPet
                                °C-day     m       %      %      %      %      %      %       %       %       -        mm       mm       mm    %     g/m2    ton/ha      %    ton/ha       %      kg/m3
    22     3  2021     1    1     4.5    0.30     -9     -9     -9      0     -9     0.0     0.0      0    -9.00      0.0      0.0      0.0   100    16.6     0.000    -9.9    0.000       -9      0.00
    23     3  2021     2    1     5.8    0.30     -9     -9     -9      0     -9     0.0     0.0      0    -9.00      0.0      0.0      0.0   100    16.6     0.000    -9.9    0.000       -9      0.00
    24     3  2021     3    1     6.8    0.30     -9     -9     -9      0     -9     0.0     0.0      0    -9.00      0.0      0.0      0.0   100    16.6     0.000    -9.9    0.000       -9      0.00
    25     3  2021     4    1     7.2    0.30     -9     -9     -9      0     -9     0.0     0.0      0    -9.00      0.0      0.0      0.0   100    16.6     0.000    -9.9    0.000       -9      0.00
    26     3  2021     5    1     9.6    0.30     -9     -9     -9      0     -9     0.0     0.0      0    -9.00      0.0      0.0      0.0   100    16.6     0.000    -9.9    0.000       -9      0.00
    27     3  2021     6    1     7.2    0.30     -9     -9     -9      0     -9     0.0     0.0      0    -9.00      0.0      0.0      0.0   100    16.6     0.000    -9.9    0.000       -9      0.00
    28     3  2021     7    1     6.3    0.30     -9     -9     -9      0     -9     0.0     0.0      0    -9.00      0.0      0.0      0.0   100    16.6     0.000    -9.9    0.000       -9      0.00
    29     3  2021     8    1    13.5    0.31     -9     -9     -9      0     -9     0.0     0.0      0    -9.00      0.0      0.0      0.0   100    16.6     0.000    -9.9    0.000       -9      0.00
    30     3  2021     9    1    12.8    0.35     -9     -9     -9      0     -9     0.0     0.0      0    -9.00      0.0      0.0      0.0   100    16.6     0.000    -9.9    0.000       -9      0.00
    31     3  2021    10    1    12.9    0.38     -9     -9     -9      0     -9     0.0     0.0      0    -9.00      0.0      0.0      0.0   100    16.6     0.000    -9.9    0.000       -9      0.00
     1     4  2021    11    1    11.8    0.40     -9     -9     -9      0     -9     0.0     0.0      0    -9.00      0.0      0.0      0.0   100    16.6     0.000    -9.9    0.000       -9      0.00
     2     4  2021    12    1     7.4    0.43     -9     -9     -9      0     -9     0.0     0.0      0    -9.00      0.0      0.0      0.0   100    16.6     0.000    -9.9    0.000       -9      0.00
     3     4  2021    13    1     2.2    0.45     -9     -9     -9      0     -9     0.0     0.0      0    -9.00      0.0      0.0      0.0   100    16.6     0.000    -9.9    0.000       -9      0.00
     4     4  2021    14    2     2.6    0.47     -9      0      0      0      0     7.1     7.1     94     0.13      0.0      0.0      0.0   100    16.6     0.001    -9.9    0.000      100      0.00
     5     4  2021    15    2     2.9    0.49     -9      0      0      0      0     7.4     7.4     92     0.13      0.0      0.0      0.0   100    16.6     0.003    -9.9    0.000      100      0.00
     6     4  2021    16    2     2.4    0.51     -9      0      0      0      0     7.8     7.8     94     0.14      0.0      0.0      0.0   100    16.6     0.004    -9.9    0.000      100      0.00
     7     4  2021    17    2     3.9    0.53     -9      0      0      0      0     8.2     8.2     86     0.15      0.0      0.0      0.0   100    16.6     0.008    -9.9    0.000      100      0.00
     8     4  2021    18    2     4.8    0.55     -9      0      0      0      0     8.6     8.6     79     0.15      0.1      0.1      0.1   100    16.6     0.013    -9.9    0.000      100      0.00
     9     4  2021    19    2     7.3    0.57      0      0      0      0      0     9.1     9.1     47     0.16      0.3      0.3      0.3   100    16.6     0.027    -9.9    0.000      100      0.00
    10     4  2021    20    2     4.8    0.59      0      0      0      0      0     9.5     9.5     79     0.17      0.0      0.0      0.0   100    16.6     0.033    -9.9    0.000      100      0.00
    11     4  2021    21    2    12.9    0.61      0      0      0      0      0    10.0    10.0      4     0.18      0.6      0.6      0.6   100    16.6     0.061    -9.9    0.000      100      0.00
    12     4  2021    22    2     3.5    0.63      0      0      0      0      0    10.5    10.5     89     0.18      0.0      0.0      0.0   100    16.6     0.065    -9.9    0.000      100      0.00
    13     4  2021    23    2     4.0    0.64      0      0      0      0      0    11.0    11.0     86     0.19      0.1      0.1      0.1   100    16.6     0.069    -9.9    0.000      100      0.00
    14     4  2021    24    2     3.5    0.66      0      0      0      0      0    11.6    11.6     89     0.20      0.0      0.0      0.0   100    16.6     0.073    -9.9    0.000      100      0.00
    15     4  2021    25    2     2.3    0.68      0      0      0      0      0    12.2    12.2     95     0.21      0.0      0.0      0.0   100    16.6     0.075    -9.9    0.000      100      0.00
    16     4  2021    26    2     7.4    0.69      0      0      0      0      0    12.8    12.8     45     0.22      0.3      0.3      0.3   100    16.6     0.095    -9.9    0.000      100      0.00
    17     4  2021    27    2     8.2    0.71      0      0      0      0      0    13.4    13.4     35     0.23      0.3      0.3      0.3   100    16.6     0.120    -9.9    0.000      100      0.00
    18     4  2021    28    2     6.6    0.73      0      0      0      0      0    14.1    14.1     56     0.24      0.2      0.2      0.2   100    16.6     0.138    -9.9    0.000      100      0.00
    19     4  2021    29    2     8.0    0.74      0      0      0      0      0    14.8    14.8     37     0.25      0.3      0.3      0.3   100    16.6     0.164    -9.9    0.000      100      0.00
    20     4  2021    30    2    10.5    0.76      0      0      0      0      0    15.5    15.5     13     0.27      0.6      0.6      0.6   100    16.6     0.203    -9.9    0.000      100      0.00
    21     4  2021    31    2     9.6    0.77      0      0      0      0      0    16.3    16.3     20     0.28      0.8      0.8      0.8   100    16.6     0.240    -9.9    0.000      100      0.00
    22     4  2021    32    2     7.4    0.79      0      0      0      0      0    17.1    17.1     45     0.29      0.5      0.5      0.5   100    16.6     0.266    -9.9    0.000      100      0.00
    23     4  2021    33    2     7.5    0.80      0      0      0      0      0    18.0    18.0     44     0.30      0.5      0.5      0.5   100    16.6     0.294    -9.9    0.000      100      0.00
    24     4  2021    34    2     6.0    0.82      0      0      0      0      0    18.9    18.9     65     0.32      0.3      0.3      0.3   100    16.6     0.312    -9.9    0.000      100      0.00
    25     4  2021    35    2     3.9    0.83      0      0      0      0      0    19.8    19.8     86     0.33      0.1      0.1      0.1   100    16.6     0.320    -9.9    0.000      100      0.00
    26     4  2021    36    2     2.2    0.84      0      0      0      0      0    20.8    20.8     95     0.35      0.0      0.0      0.0   100    16.6     0.323    -9.9    0.000      100      0.00
    27     4  2021    37    2     3.9    0.86      0      0      0      0      0    21.9    21.9     86     0.36      0.2      0.2      0.2   100    16.6     0.331    -9.9    0.000      100      0.00
    28     4  2021    38    2     7.7    0.87      0      0      0      0      0    23.0    23.0     41     0.38      0.9      0.9      0.9   100    16.6     0.367    -9.9    0.000      100      0.00
    29     4  2021    39    2    12.0    0.89      0      0      0      0      0    24.1    24.1      6     0.39      1.1      1.1      1.1   100    16.6     0.429    -9.9    0.000      100      0.00
    30     4  2021    40    2     8.6    0.90      0      0      0      0      0    25.4    25.4     30     0.41      0.6      0.6      0.6   100    16.6     0.476    -9.9    0.000      100      0.00
     1     5  2021    41    2     9.8    0.91      0      0      0      0      0    26.6    26.6     18     0.43      0.9      0.9      0.9   100    16.6     0.534    -9.9    0.000      100      0.00
     2     5  2021    42    2     7.5    0.93      0      0      0      0      0    28.0    28.0     43     0.44      0.4      0.4      0.4   100    16.6     0.576    -9.9    0.000      100      0.00
     3     5  2021    43    2     7.4    0.94      0      0      0      0      0    29.4    29.4     45     0.46      0.7      0.7      0.7   100    16.6     0.618    -9.9    0.000      100      0.00
     4     5  2021    44    2    10.8    0.95      0      0      0      0      0    30.8    30.8     11     0.48      1.6      1.6      1.6   100    16.6     0.689    -9.9    0.000      100      0.00
     5     5  2021    45    2     9.0    0.97      0      0      0      0      0    32.4    32.4     25     0.50      1.2      1.2      1.2   100    16.6     0.752    -9.9    0.000      100      0.00
     6     5  2021    46    2     7.4    0.98      0      0      0      0      0    34.0    34.0     46     0.52      0.7      0.7      0.7   100    16.6     0.798    -9.9    0.000      100      0.00
     7     5  2021    47    2     6.2    0.99      0      0      0      0      0    35.7    35.7     62     0.54      0.4      0.4      0.4   100    16.6     0.833    -9.9    0.000      100      0.00
     8     5  2021    48    2     7.4    1.00      0      0      0      0      0    37.5    37.5     45     0.57      1.0      1.0      1.0   100    16.6     0.884    -9.9    0.000      100      0.00
     9     5  2021    49    2    17.4    1.02      0      0      0      0      0    39.4    39.4      0     0.59      3.7      3.7      3.7   100    16.6     0.982    -9.9    0.000      100      0.00
    10     5  2021    50    2    18.6    1.03      0      0      0      0      0    41.4    41.4      0     0.61      4.0      4.0      4.0   100    16.6     1.083    -9.9    0.000      100      0.00
    11     5  2021    51    2    18.6    1.04      0      0      0      0      0    43.5    43.5      0     0.63      3.4      3.4      3.4   100    16.6     1.189    -9.9    0.000      100      0.00
    12     5  2021    52    2    13.4    1.05      0      0      0      0      0    45.6    45.6      3     0.66      1.0      1.0      1.0   100    16.6     1.295    -9.9    0.000      100      0.00
    13     5  2021    53    2    11.2    1.07      0      0      0      0      0    47.9    47.9      9     0.68      0.6      0.6      0.6   100    16.6     1.397    -9.9    0.000      100      0.00
    14     5  2021    54    2     9.7    1.08      0      0      0      0      0    50.2    50.2     19     0.71      1.5      1.5      1.5   100    16.6     1.492    -9.9    0.000      100      0.00
    15     5  2021    55    2    10.9    1.09      0      0      0      0      0    52.3    52.3     10     0.73      2.4      2.4      2.4   100    16.6     1.600    -9.9    0.000      100      0.00
    16     5  2021    56    2    12.6    1.10      0      0      0      0      0    54.4    54.4      4     0.75      2.4      2.4      2.4   100    16.6     1.719    -9.9    0.000      100      0.00
    17     5  2021    57    2    12.9    1.11      0      0      0      0      0    56.3    56.3      4     0.77      2.5      2.5      2.5   100    16.6     1.842    -9.9    0.000      100      0.00
    18     5  2021    58    2    11.4    1.13      0      0      0      0      0    58.2    58.2      9     0.78      2.1      2.1      2.1   100    16.6     1.961    -9.9    0.000      100      0.00
    19     5  2021    59    2    11.4    1.14      0      0      0      0      0    60.0    60.0      8     0.80      2.8      2.8      2.8   100    16.6     2.083    -9.9    0.000      100      0.00
    20     5  2021    60    2    13.6    1.15      0      0      0      0      0    61.6    61.6      3     0.82      2.9      2.9      2.9   100    16.6     2.215    -9.9    0.000      100      0.00
    21     5  2021    61    2    15.3    1.16      0      0      0      0      0    63.2    63.2      0     0.83      4.4      4.4      4.4   100    16.6     2.353    -9.9    0.000      100      0.00
    22     5  2021    62    2    13.6    1.17      0      0      0      0      0    64.8    64.8      3     0.84      3.4      3.4      3.4   100    16.6     2.489    -9.9    0.000      100      0.00
    23     5  2021    63    2    12.7    1.18      0      0      0      0      0    66.2    66.2      4     0.86      2.8      2.8      2.8   100    16.6     2.626    -9.9    0.000      100      0.00
    24     5  2021    64    2    13.0    1.19      0      0      0      0      0    67.6    67.6      4     0.87      3.9      3.9      3.9   100    16.6     2.765    -9.9    0.000      100      0.00
    25     5  2021    65    2    12.3    1.21      0      0      0      0      0    68.9    68.9      5     0.88      2.8      2.8      2.8   100    16.6     2.903    -9.9    0.000      100      0.00
    26     5  2021    66    2    11.3    1.22      0      0      0      0      0    70.2    70.2      9     0.89      2.2      2.2      2.2   100    16.6     3.038    -9.9    0.000      100      0.00
    27     5  2021    67    2    11.9    1.23      0      0      0      0      0    71.4    71.4      6     0.90      2.3      2.3      2.3   100    16.6     3.178    -9.9    0.000      100      0.00
    28     5  2021    68    2    10.9    1.24      0      0      0      0      0    72.5    72.5     11     0.91      2.4      2.4      2.4   100    16.6     3.312    -9.9    0.000      100      0.00
    29     5  2021    69    2    10.8    1.25      0      0      0      0      0    73.6    73.6     11     0.92      2.6      2.6      2.6   100    16.6     3.448    -9.9    0.000      100      0.00
    30     5  2021    70    2    11.3    1.26      0      0      0      0      0    74.6    74.6      9     0.92      3.7      3.7      3.7   100    16.6     3.588    -9.9    0.000      100      0.00
    31     5  2021    71    2    11.6    1.27      0      0      0      0      0    75.6    75.6      8     0.93      3.9      3.9      3.9   100    16.6     3.731    -9.9    0.000      100      0.00
     1     6  2021    72    2    14.4    1.28      1      0      0      0      0    76.5    76.5      0     0.94      5.0      5.0      5.0   100    16.6     3.887    -9.9    0.000      100      0.00
     2     6  2021    73    2    18.9    1.29      1      0      0      0      0    77.4    77.4      0     0.95      4.6      4.6      4.6   100    16.6     4.045    -9.9    0.000      100      0.00
     3     6  2021    74    2    18.2    1.30      3      0      0      0      0    78.2    78.2      0     0.95      6.0      6.0      6.0   100    16.6     4.203    -9.9    0.000      100      0.00
     4     6  2021    75    2    18.9    1.32      1      0      0      0      0    79.0    79.0      0     0.96      4.4      4.4      4.4   100    16.6     4.362    -9.9    0.000      100      0.00
     5     6  2021    76    2    18.1    1.33      3      0      0      0      0    79.8    79.8      0     0.96      5.5      5.5      5.5   100    16.6     4.523    -9.9    0.000      100      0.00
     6     6  2021    77    2    18.6    1.34      4      0      0      0      0    80.5    80.5      0     0.97      5.4      5.4      5.4   100    16.6     4.684    -9.9    0.000      100      0.00
     7     6  2021    78    2    18.4    1.35      5      0      0      0      0    81.1    81.1      0     0.97      5.6      5.6      5.6   100    16.6     4.846    -9.9    0.000      100      0.00
     8     6  2021    79    2    18.6    1.36      6      0      0      0      0    81.7    81.7      0     0.98      5.4      5.4      5.4   100    16.6     5.009    -9.9    0.000      100      0.00
     9     6  2021    80    2    18.6    1.37      6      0      0      0      0    82.3    82.3      0     0.98      5.2      5.2      5.2   100    16.6     5.172    -9.9    0.000      100      0.00
    10     6  2021    81    2    18.4    1.38      8      0      0      0      0    82.9    82.9      0     0.99      5.4      5.4      5.4   100    16.6     5.336    -9.9    0.000      100      0.00
    11     6  2021    82    2    19.0    1.39     11      0      0      0      0    83.4    83.4      0     0.99      5.6      5.6      5.6   100    16.6     5.501    -9.9    0.000      100      0.00
    12     6  2021    83    2    17.9    1.40      8      0      0      0      0    83.9    83.9      0     1.00      4.5      4.5      4.5   100    16.6     5.667    -9.9    0.000      100      0.00
    13     6  2021    84    2    13.9    1.41      9      0      0      0      0    84.4    84.4      2     1.00      4.3      4.3      4.3   100    16.6     5.829    -9.9    0.000      100      0.00
    14     6  2021    85    2    15.2    1.42     15      0      0      0      0    84.8    84.8      0     1.00      5.5      5.5      5.5   100    16.6     5.996    -9.9    0.000      100      0.00
    15     6  2021    86    2    18.1    1.43     15      0      0      0      0    85.2    85.2      0     1.00      4.8      4.8      4.8   100    16.6     6.163    -9.9    0.000      100      0.00
    16     6  2021    87    2    18.3    1.44     28      0      0      0      0    85.5    85.5      0     1.01      6.2      6.2      6.2   100    16.6     6.330    -9.9    0.000      100      0.00
    17     6  2021    88    2    21.6    1.45     59      0      0      0      0    85.6    85.6      0     1.01      8.2      8.2      8.2   100    16.6     6.498    -9.9    0.000      100      0.00
    18     6  2021    89    2    21.5    1.46     87      0      0      0      0    85.6    85.6      0     1.01      8.7      8.7      8.7   100    16.6     6.665    -9.9    0.000      100      0.00
    19     6  2021    90    2    22.1    1.47     86      0      0      0      0    85.7    85.7      0     1.01      7.6      7.6      7.6   100    16.6     6.833    -9.9    0.000      100      0.00
    20     6  2021    91    2    21.4    1.48    100      0      0      0      0    85.7    85.7      0     1.01      7.3      7.3      7.3   100    16.6     7.001    -9.9    0.000       99      0.00
    21     6  2021    92    2    21.4    1.49    100      1      0      0      0    85.7    85.7      0     1.01      6.7      6.6      6.6    99    16.6     7.166    -9.9    0.000       99      0.00
    22     6  2021    93    2    16.9    1.50     55      0      0      0      0    85.8    85.8      0     1.01      3.6      3.6      3.6   100    16.6     7.334    -9.9    0.000       99      0.00
    23     6  2021    94    2    15.4    1.50     66      0      0      0      0    85.9    85.9      0     1.01      3.9      3.9      3.9   100    16.6     7.502    -9.9    0.000       99      0.00
    24     6  2021    95    2    16.6    1.50     62      0      0      0      0    86.0    86.0      0     1.01      3.4      3.4      3.4   100    16.6     7.670    -9.9    0.000       99      0.00
    25     6  2021    96    2    20.1    1.50     88      0      0      0      0    86.0    86.0      0     1.01      4.1      4.1      4.1   100    16.6     7.837    -9.9    0.000       99      0.00
    26     6  2021    97    2    18.1    1.50    100     10      0      0      0    86.0    86.0      0     1.01      5.4      4.8      4.8    90    16.6     7.989    -9.9    0.000       99      0.00
    27     6  2021    98    2    16.9    1.50    100     17      1      0      0    86.0    86.0      0     1.01      5.8      4.8      4.8    83    16.6     8.129    -9.9    0.000       99      0.00
    28     6  2021    99    2    19.3    1.50    100     27      4      0      0    85.9    85.9      0     1.01      6.9      5.0      5.0    73    16.6     8.251    -9.9    0.000       98      0.00
    29     6  2021   100    2    21.4    1.50      2      0      0      0      0    86.3    86.3      0     1.01      5.3      5.3      5.3   100    16.6     8.419    -9.9    0.000       98      0.00
    30     6  2021   101    2    17.4    1.50      0      0      0      0      0    86.7    86.7      0     1.02      2.2      2.2      2.2   100    16.6     8.588    -9.9    0.000       98      0.00
     1     7  2021   102    2    16.1    1.50      0      0      0      0      0    87.0    87.0      0     1.02      2.0      2.0      2.0   100    16.6     8.757    -9.9    0.000       98      0.00
     2     7  2021   103    2    19.8    1.50      0      0      0      0      0    87.4    87.4      0     1.02      4.4      4.4      4.4   100    16.6     8.927    -9.9    0.000       98      0.00
     3     7  2021   104    2    19.6    1.50      0      0      0      0      0    87.7    87.7      0     1.02      4.7      4.7      4.7   100    16.6     9.097    -9.9    0.000       98      0.00
     4     7  2021   105    2    19.6    1.50      8      0      0      0      0    88.0    88.0      0     1.02      5.3      5.3      5.3   100    16.6     9.267    -9.9    0.000       98      0.00
     5     7  2021   106    2    19.2    1.50     72      0      0      0      0    88.0    88.0      0     1.03      4.6      4.6      4.6   100    16.6     9.438    -9.9    0.000       98      0.00
     6     7  2021   107    2    20.6    1.50      3      0      0      0      0    88.3    88.3      0     1.03      6.0      6.0      6.0   100    16.6     9.608    -9.9    0.000       98      0.00
     7     7  2021   108    2    18.6    1.50      5      0      0      0      0    88.5    88.5      0     1.03      3.1      3.1      3.1   100    16.6     9.779    -9.9    0.000       98      0.00
     8     7  2021   109    2    17.4    1.50      0      0      0      0      0    88.8    88.8      0     1.03      3.1      3.1      3.1   100    16.6     9.951    -9.9    0.000       98      0.00
     9     7  2021   110    2    18.4    1.50      0      0      0      0      0    89.0    89.0      0     1.03      3.1      3.1      3.1   100    16.6    10.122    -9.9    0.000       98      0.00
    10     7  2021   111    2    19.7    1.50      0      0      0      0      0    89.3    89.3      0     1.03      4.4      4.4      4.4   100    16.6    10.294    -9.9    0.000       98      0.00
    11     7  2021   112    2    19.5    1.50      0      0      0      0      0    89.5    89.5      0     1.04      5.6      5.6      5.6   100    16.6    10.467    -9.9    0.000       98      0.00
    12     7  2021   113    2    20.3    1.50      1      0      0      0      0    89.7    89.7      0     1.04      4.3      4.3      4.3   100    16.6    10.639    -9.9    0.000       98      0.00
    13     7  2021   114    2    19.6    1.50      0      0      0      0      0    89.9    89.9      0     1.04      5.9      5.9      5.9   100    16.6    10.812    -9.9    0.000       98      0.00
    14     7  2021   115    2    20.7    1.50      1      0      0      0      0    90.1    90.1      0     1.04      3.8      3.8      3.8   100    16.6    10.984    -9.9    0.000       98      0.00
    15     7  2021   116    2    20.2    1.50     14      0      0      0      0    90.2    90.2      0     1.04      4.5      4.5      4.5   100    16.6    11.157    -9.9    0.000       98      0.00
    16     7  2021   117    2    20.7    1.50      9      0      0      0      0    90.4    90.4      0     1.04      4.9      4.9      4.9   100    16.6    11.331    -9.9    0.000       98      0.00
    17     7  2021   118    2    21.7    1.50     50      0      0      0      0    90.4    90.4      0     1.04      4.5      4.5      4.5   100    16.6    11.504    -9.9    0.000       98      0.00
    18     7  2021   119    2    20.4    1.50     70      0      0      0      0    90.4    90.4      0     1.04      5.0      5.0      5.0   100    16.6    11.677    -9.9    0.000       98      0.00
    19     7  2021   120    2    16.3    1.50     61      0      0      0      0    90.5    90.5      0     1.04      3.9      3.9      3.9   100    16.6    11.850    -9.9    0.000       98      0.00
    20     7  2021   121    2    16.6    1.50     68      0      0      0      0    90.5    90.5      0     1.04      3.6      3.6      3.6   100    16.6    12.024    -9.9    0.000       98      0.00
    21     7  2021   122    2    16.4    1.50     78      0      0      0      0    90.5    90.5      0     1.04      3.6      3.6      3.6   100    16.6    12.197    -9.9    0.000       98      0.00
    22     7  2021   123    2    19.8    1.50     88      0      0      0      0    90.5    90.5      0     1.04      3.5      3.5      3.5   100    16.6    12.370    -9.9    0.000       98      0.00
    23     7  2021   124    2    19.7    1.50    100      5      0      0      0    90.5    90.5      0     1.04      4.2      4.0      4.0    95    16.6    12.535    -9.9    0.000       98      0.00
    24     7  2021   125    2    18.6    1.50    100     21      2      0      0    90.4    90.4      0     1.04      6.1      4.9      4.9    79    16.6    12.672    -9.9    0.000       97      0.00
    25     7  2021   126    2    22.1    1.50    100     16      0      0      0    90.4    90.4      0     1.04      5.4      4.6      4.6    84    16.6    12.818    -9.9    0.000       97      0.00
    26     7  2021   127    2    21.5    1.50    100     17      1      0      0    90.4    90.4      0     1.04      4.9      4.1      4.1    83    16.6    12.961    -9.9    0.000       97      0.00
    27     7  2021   128    3    21.3    1.50    100     21      2      0      0    90.4    90.4      0     1.04      5.0      3.9      3.9    79    16.6    13.097    -9.9    0.000       97      0.00
    28     7  2021   129    3    19.7    1.50    100     21      2      0      0    90.3    90.3      0     1.03      4.1      3.3      3.3    79    16.6    13.233    -9.9    0.000       96      0.00
    29     7  2021   130    3    18.1    1.50    100     31      6      0      0    90.2    90.2      0     1.03      5.6      3.8      3.8    69    16.6    13.351    -9.9    0.000       96      0.00
    30     7  2021   131    3    17.6    1.50    100     34      7      0      0    90.0    90.0      0     1.03      5.3      3.5      3.5    66    16.6    13.463     1.4    0.189       96      0.04
    31     7  2021   132    3    18.6    1.50    100     39     10      0      0    89.8    89.8      0     1.02      5.7      3.5      3.5    61    16.6    13.567     1.6    0.212       95      0.05
     1     8  2021   133    3    17.4    1.50    100     32      6      0      0    89.7    89.7      0     1.02      3.7      2.5      2.5    68    16.6    13.681     1.7    0.239       95      0.05
     2     8  2021   134    3    15.3    1.50    100     37      8      0      0    89.5    89.5      0     1.01      4.1      2.6      2.6    63    16.6    13.787     2.0    0.269       94      0.06
     3     8  2021   135    3    15.1    1.50    100     35      7      0      0    89.3    89.3      0     1.01      3.6      2.4      2.4    65    16.6    13.896     2.2    0.303       94      0.07
     4     8  2021   136    3    17.6    1.50     -9     35      7      0      0    89.1    89.1      0     1.00      3.2      2.1      2.1    65    16.6    14.004     2.4    0.341       94      0.07
     5     8  2021   137    3    17.4    1.50     -9     34      6      0      0    88.9    88.9      0     1.00      3.4      2.2      2.2    66    16.6    14.114     2.7    0.384       93      0.08
     6     8  2021   138    3    19.9    1.50     -9     38      8      0      0    88.7    88.7      0     0.99      3.8      2.4      2.4    62    16.6    14.217     3.0    0.431       93      0.09
     7     8  2021   139    3    18.8    1.50     -9     41     10      0      0    88.4    88.4      0     0.99      3.8      2.3      2.3    59    16.6    14.314     3.4    0.483       92      0.10
     8     8  2021   140    3    19.3    1.50     -9     46     14      0      0    88.0    88.0      0     0.98      4.5      2.4      2.4    54    16.6    14.402     3.7    0.540       92      0.11
     9     8  2021   141    3    18.4    1.50     -9     47     14      0      0    87.7    87.7      0     0.97      4.2      2.2      2.2    53    16.6    14.488     4.2    0.603       92      0.13
    10     8  2021   142    3    18.0    1.50     -9     46     13      0      0    87.3    87.3      0     0.96      3.5      1.9      1.9    54    16.6    14.575     4.6    0.673       91      0.14
    11     8  2021   143    4    16.8    1.50     -9     48     15      0      0    86.8    86.8      0     0.95      3.5      1.8      1.8    52    16.6    14.657     5.1    0.750       91      0.16
    12     8  2021   144    4    16.9    1.50     -9     53     19      0      0    86.3    86.3      0     0.94      4.2      2.0      2.0    47    16.6    14.730     5.7    0.834       90      0.17
    13     8  2021   145    4    20.1    1.50     -9     56     21      0      0    85.8    85.8      0     0.93      4.6      2.0      2.0    44    16.6    14.799     6.3    0.926       90      0.19
    14     8  2021   146    4    19.9    1.50     -9     58     23      0      0    85.1    85.1      0     0.92      4.4      1.9      1.9    42    16.6    14.864     6.9    1.025       89      0.21
    15     8  2021   147    4    18.2    1.50     -9     58     23      0      0    84.5    84.5      0     0.91      3.9      1.6      1.6    42    16.6    14.926     7.6    1.134       88      0.23
    16     8  2021   148    4    19.4    1.50     -9     61     26      0      0    83.7    83.7      0     0.89      4.1      1.6      1.6    39    16.6    14.984     8.3    1.251       88      0.26
    17     8  2021   149    4    15.4    1.50     -9     60     24      0      0    83.0    83.0      0     0.88      3.2      1.3      1.3    40    16.6    15.043     9.2    1.377       87      0.28
    18     8  2021   150    4    16.4    1.50     -9     62     27      0      0    82.1    82.1      0     0.86      3.4      1.3      1.3    38    16.6    15.098    10.0    1.502       87      0.31
    19     8  2021   151    4    18.4    1.50     -9     61     26      0      0    81.2    81.2      0     0.85      2.8      1.1      1.1    39    16.6    15.153    10.8    1.629       86      0.33
    20     8  2021   152    4    16.4    1.50     -9     63     28      0      0    80.2    80.2      0     0.83      2.8      1.0      1.0    37    16.6    15.204    11.5    1.756       86      0.36
    21     8  2021   153    4    16.6    1.50     -9     64     29      0      0    79.1    79.1      0     0.81      2.7      1.0      1.0    36    16.6    15.252    12.3    1.882       85      0.38
    22     8  2021   154    4    16.9    1.50     -9      0      0      0      0    78.9    78.9      0     0.81      2.2      2.2      2.2   100    16.6    15.386    13.2    2.029       85      0.41
    23     8  2021   155    4    15.4    1.50     -9      0      0      0      0    78.9    78.9      0     0.80      1.1      1.1      1.1   100    16.6    15.520    14.0    2.178       85      0.44
    24     8  2021   156    4    15.2    1.50     -9      0      0      0      0    78.9    78.9      0     0.80      2.6      2.6      2.6   100    16.6    15.654    14.9    2.329       85      0.47
    25     8  2021   157    4    13.3    1.50     -9      0      0      0      0    78.9    78.9      3     0.80      2.6      2.6      2.6   100    16.6    15.783    15.7    2.482       85      0.49
    26     8  2021   158    4    14.9    1.50     -9      0      0      0      0    78.9    78.9      0     0.80      1.5      1.5      1.5   100    16.6    15.916    16.6    2.638       85      0.52
    27     8  2021   159    4    14.8    1.50     -9      0     -9      0      0    78.6    78.6      0     0.80      1.4      1.4      1.4   100    16.6    16.049    17.4    2.796       85      0.55
    28     8  2021   160    4    15.4    1.50     -9      0     -9      0      0    78.3    78.3      0     0.79      1.7      1.7      1.7   100    16.6    16.180    18.3    2.957       85      0.58
    29     8  2021   161    4    15.7    1.50     -9      0     -9      0      0    78.0    78.0      0     0.78      1.4      1.4      1.4   100    16.6    16.310    19.1    3.119       85      0.61
    30     8  2021   162    4    15.9    1.50     -9      0     -9      0      0    77.6    77.6      0     0.78      1.3      1.3      1.3   100    16.6    16.439    20.0    3.284       85      0.64
    31     8  2021   163    4    14.6    1.50     -9      0     -9      0      0    77.2    77.2      0     0.77      1.8      1.8      1.8   100    16.6    16.567    20.8    3.450       84      0.67
     1     9  2021   164    4    14.7    1.50     -9      0     -9      0      0    76.7    76.7      0     0.76      1.7      1.7      1.7   100    16.6    16.693    21.7    3.619       84      0.70
     2     9  2021   165    4    15.5    1.50     -9      0     -9      0      0    76.3    76.3      0     0.75      2.0      2.0      2.0   100    16.6    16.818    22.5    3.790       84      0.73
     3     9  2021   166    4    15.1    1.50     -9      0     -9      0      0    75.8    75.8      0     0.74      2.3      2.3      2.3   100    16.6    16.941    23.4    3.962       84      0.76
     4     9  2021   167    4    12.9    1.50     -9      0     -9      0      0    75.2    75.2      4     0.73      1.5      1.5      1.5   100    16.6    17.059    24.2    4.135       84      0.79
     5     9  2021   168    4    14.7    1.50     -9      0     -9      0      0    74.6    74.6      0     0.72      2.1      2.1      2.1   100    16.6    17.179    25.1    4.311       84      0.82
     6     9  2021   169    4    15.3    1.50     -9      0     -9      0      0    74.0    74.0      0     0.71      2.0      2.0      2.0   100    16.6    17.297    26.0    4.489       84      0.85
     7     9  2021   170    4    16.0    1.50     -9      0     -9      0      0    73.3    73.3      0     0.70      1.8      1.8      1.8   100    16.6    17.413    26.8    4.668       84      0.88
     8     9  2021   171    4    16.3    1.50     -9      0     -9      0      0    72.6    72.6      0     0.69      2.1      2.1      2.1   100    16.6    17.528    27.7    4.849       84      0.91
     9     9  2021   172    4    18.1    1.50     -9      0     -9      0      0    71.8    71.8      0     0.67      2.6      2.6      2.6   100    16.6    17.640    28.5    5.031       84      0.94
    10     9  2021   173    4    19.7    1.50     -9      0     -9      0      0    71.0    71.0      0     0.66      2.0      2.0      2.0   100    16.6    17.750    29.4    5.214       84      0.97
    11     9  2021   174    4    19.0    1.50     -9      0     -9      0      0    70.1    70.1      0     0.65      1.3      1.3      1.3   100    16.6    17.857    30.2    5.398       84      1.00
    12     9  2021   175    4    16.8    1.50     -9      0     -9      0      0    69.1    69.1      0     0.63      1.3      1.3      1.3   100    16.6    17.962    31.1    5.584       84      1.04
    13     9  2021   176    4    15.3    1.50     -9      0     -9      0      0    68.0    68.0      0     0.61      1.3      1.3      1.3   100    16.6    18.064    31.9    5.770       84      1.07
    14     9  2021   177    4    15.8    1.50     -9      0     -9      0      0    66.9    66.9      0     0.60      1.5      1.5      1.5   100    16.6    18.163    32.8    5.958       84      1.10
    15     9  2021   178    4    19.1    1.50     -9      0     -9      0      0    65.7    65.7      0     0.58      1.4      1.4      1.4   100    16.6    18.259    33.7    6.146       84      1.13
    16     9  2021   179    4    17.2    1.50     -9      0     -9      0      0    64.4    64.4      0     0.56      1.2      1.2      1.2   100    16.6    18.352    34.5    6.334       84      1.16
    17     9  2021   180    4    14.3    1.50     -9      0     -9      0      0    63.0    63.0      0     0.54      1.0      1.0      1.0   100    16.6    18.441    35.4    6.523       84      1.19
    18     9  2021   181    4    14.6    1.50     -9      0     -9      0      0    61.5    61.5      0     0.51      0.8      0.8      0.8   100    16.6    18.526    36.2    6.713       84      1.22
    19     9  2021   182    4    12.8    1.50     -9      0     -9      0      0    59.8    59.8      4     0.49      0.7      0.7      0.7   100    16.6    18.605    37.1    6.901       84      1.26
    20     9  2021   183    4    12.2    1.50     -9      0     -9      0      0    58.1    58.1      6     0.47      0.6      0.6      0.6   100    16.6    18.678    37.9    7.088       84      1.29
    21     9  2021   184    4    12.5    1.50     -9      0     -9      0      0    56.2    56.2      5     0.44      0.7      0.7      0.7   100    16.6    18.748    38.8    7.276       84      1.32
    22     9  2021   185    4    12.1    1.50     -9      0     -9      0      0    54.1    54.1      6     0.41      0.7      0.7      0.7   100    16.6    18.812    39.7    7.462       84      1.35
    23     9  2021   186    4    12.8    1.50     -9      0     -9      0      0    51.9    51.9      4     0.38      1.1      1.1      1.1   100    16.6    18.873    40.5    7.648       84      1.38
    24     9  2021   187    4    14.6    1.50     -9      0     -9      0      0    49.6    49.6      0     0.35      0.9      0.9      0.9   100    16.6    18.932    41.4    7.835       84      1.41
    25     9  2021   188    4    15.9    1.50     -9      0     -9      0      0    47.0    47.0      0     0.32      0.6      0.6      0.6   100    16.6    18.986    42.2    8.020       83      1.44
    26     9  2021   189    4    18.9    1.50     -9      0     -9      0      0    44.3    44.3      0     0.29      0.7      0.7      0.7   100    16.6    19.034    43.1    8.204       83      1.47
    27     9  2021   190    4    17.4    1.50     -9      0     -9      0      0    41.3    41.3      0     0.26      0.4      0.4      0.4   100    16.6    19.076    44.0    8.386       83      1.51
    28     9  2021   191    4    13.1    1.50     -9      0     -9      0      0    38.2    38.2      3     0.22      0.3      0.3      0.3   100    16.6    19.112    44.8    8.566       83      1.54
    29     9  2021   192    4    13.1    1.50     -9      0     -9      0      0    34.8    34.8      3     0.19      0.2      0.2      0.2   100    16.6    19.142    45.7    8.744       83      1.57
    30     9  2021   193    4    11.1    1.50     -9      0     -9      0      0    31.1    31.1     10     0.15      0.3      0.3      0.3   100    16.6    19.165    46.5    8.919       83      1.59
     1    10  2021   194    4    11.9    1.50     -9      0     -9      0      0    27.1    27.1      6     0.12      0.3      0.3      0.3   100    16.6    19.184    47.4    9.093       83      1.62
     2    10  2021   195    4    13.9    1.50     -9      0     -9      0      0    22.9    22.9      2     0.09      0.2      0.2      0.2   100    16.6    19.198    48.3    9.264       83      1.65
     3    10  2021   196    4    18.7    1.50     -9      0     -9      0      0    18.3    18.3      0     0.06      0.2      0.2      0.2   100    16.6    19.207    48.3    9.269       83      1.65
[...]
     6     7  2024   107    2    20.4    1.50     10      0      0      0      0    90.8    90.8      0     1.04      6.8      6.8      6.8   100    16.8    10.440    -9.9    0.000       99      0.00
     7     7  2024   108    2    16.4    1.50     21      0      0      0      0    90.9    90.9      0     1.04      4.8      4.8      4.8   100    16.8    10.616    -9.9    0.000       99      0.00
     8     7  2024   109    2    17.3    1.50     33      0      0      0      0    91.0    91.0      0     1.04      5.6      5.6      5.6   100    16.8    10.791    -9.9    0.000       99      0.00
     9     7  2024   110    2    20.9    1.50     54      0      0      0      0    91.1    91.1      0     1.05      6.6      6.6      6.6   100    16.8    10.967    -9.9    0.000       99      0.00
    10     7  2024   111    2    22.2    1.50      0      0      0      0      0    91.3    91.3      0     1.05      5.4      5.4      5.4   100    16.8    11.143    -9.9    0.000       99      0.00
    11     7  2024   112    2    21.7    1.50      0      0      0      0      0    91.4    91.4      0     1.05      4.4      4.4      4.4   100    16.8    11.319    -9.9    0.000       99      0.00
    12     7  2024   113    2    21.1    1.50      0      0      0      0      0    91.6    91.6      0     1.05      3.4      3.4      3.4   100    16.8    11.496    -9.9    0.000       99      0.00
    13     7  2024   114    2    17.7    1.50      0      0      0      0      0    91.7    91.7      0     1.05      4.2      4.2      4.2   100    16.8    11.672    -9.9    0.000       99      0.00
    14     7  2024   115    2    18.4    1.50      0      0      0      0      0    91.8    91.8      0     1.05      4.7      4.7      4.7   100    16.8    11.849    -9.9    0.000       99      0.00
    15     7  2024   116    2    19.3    1.50      1      0      0      0      0    92.0    92.0      0     1.05      5.6      5.6      5.6   100    16.8    12.026    -9.9    0.000       99      0.00
    16     7  2024   117    2    20.8    1.50     16      0      0      0      0    92.0    92.0      0     1.05      5.3      5.3      5.3   100    16.8    12.203    -9.9    0.000       99      0.00
    17     7  2024   118    2    18.8    1.50     18      0      0      0      0    92.1    92.1      0     1.05      5.1      5.1      5.1   100    16.8    12.380    -9.9    0.000       99      0.00
    18     7  2024   119    2    18.6    1.50     20      0      0      0      0    92.2    92.2      0     1.05      4.7      4.7      4.7   100    16.8    12.557    -9.9    0.000       99      0.00
    19     7  2024   120    2    18.8    1.50     30      0      0      0      0    92.2    92.2      0     1.05      5.4      5.4      5.4   100    16.8    12.734    -9.9    0.000       99      0.00
    20     7  2024   121    2    19.9    1.50     44      0      0      0      0    92.3    92.3      0     1.05      6.0      6.0      6.0   100    16.8    12.911    -9.9    0.000       99      0.00
    21     7  2024   122    2    20.0    1.50     59      0      0      0      0    92.3    92.3      0     1.05      6.3      6.3      6.3   100    16.8    13.089    -9.9    0.000       99      0.00
    22     7  2024   123    2    19.1    1.50     44      0      0      0      0    92.3    92.3      0     1.05      4.4      4.4      4.4   100    16.8    13.266    -9.9    0.000       99      0.00
    23     7  2024   124    2    18.0    1.50     50      0      0      0      0    92.4    92.4      0     1.05      5.2      5.2      5.2   100    16.8    13.443    -9.9    0.000       99      0.00
    24     7  2024   125    2    18.6    1.50     38      0      0      0      0    92.4    92.4      0     1.05      3.8      3.8      3.8   100    16.8    13.620    -9.9    0.000       99      0.00
    25     7  2024   126    2    18.1    1.50     54      0      0      0      0    92.4    92.4      0     1.05      4.4      4.4      4.4   100    16.8    13.798    -9.9    0.000       99      0.00
    26     7  2024   127    2    18.2    1.50     57      0      0      0      0    92.4    92.4      0     1.05      4.1      4.1      4.1   100    16.8    13.975    -9.9    0.000       99      0.00
    27     7  2024   128    3    19.2    1.50      0      0      0      0      0    92.5    92.5      0     1.05      3.0      3.0      3.0   100    16.8    14.151    -9.9    0.000       99      0.00
    28     7  2024   129    3    18.1    1.50      0      0      0      0      0    92.5    92.5      0     1.05      3.8      3.8      3.8   100    16.8    14.328    -9.9    0.000       99      0.00
    29     7  2024   130    3    17.2    1.50      0      0      0      0      0    92.6    92.6      0     1.05      4.3      4.3      4.3   100    16.8    14.504    -9.9    0.000       99      0.00
    30     7  2024   131    3    17.0    1.50      1      0      0      0      0    92.6    92.6      0     1.05      5.0      5.0      5.0   100    16.8    14.681     1.4    0.207       99      0.04
    31     7  2024   132    3    19.0    1.50     20      0      0      0      0    92.6    92.6      0     1.05      5.1      5.1      5.1   100    16.8    14.857     1.6    0.234       99      0.05
     1     8  2024   133    3    21.3    1.50     44      0      0      0      0    92.6    92.6      0     1.05      4.7      4.7      4.7   100    16.8    15.032     1.8    0.265       99      0.05
     2     8  2024   134    3    19.1    1.50     32      0      0      0      0    92.6    92.6      0     1.04      3.1      3.1      3.1   100    16.8    15.208     2.0    0.300       99      0.06
     3     8  2024   135    3    19.8    1.50     41      0      0      0      0    92.6    92.6      0     1.04      4.1      4.1      4.1   100    16.8    15.383     2.2    0.339       99      0.07
     4     8  2024   136    3    19.1    1.50     -9      0      0      0      0    91.9    91.9      0     1.03      3.6      3.6      3.6   100    16.8    15.556     2.5    0.383       99      0.08
     5     8  2024   137    3    17.4    1.50     -9      0      0      0      0    91.9    91.9      0     1.03      3.9      3.9      3.9   100    16.8    15.729     2.7    0.432       99      0.09
     6     8  2024   138    3    17.5    1.50     -9      0      0      0      0    91.9    91.9      0     1.03      4.5      4.5      4.5   100    16.8    15.902     3.1    0.488       99      0.10
     7     8  2024   139    3    19.4    1.50     -9      0      0      0      0    92.0    92.0      0     1.03      5.0      5.0      5.0   100    16.8    16.074     3.4    0.549       99      0.11
     8     8  2024   140    3    18.3    1.50     -9      0      0      0      0    92.0    92.0      0     1.02      3.9      3.9      3.9   100    16.8    16.246     3.8    0.618       99      0.12
     9     8  2024   141    3    18.6    1.50     -9      4      0      0      0    92.0    92.0      0     1.02      4.3      4.1      4.1    96    16.8    16.412     4.2    0.694       99      0.13
    10     8  2024   142    3    20.4    1.50     -9     11      0      0      0    92.1    92.1      0     1.02      4.7      4.2      4.2    89    16.8    16.566     4.7    0.778       99      0.15
    11     8  2024   143    4    18.8    1.50     -9     11      0      0      0    92.1    92.1      0     1.02      4.2      3.7      3.7    89    16.8    16.718     5.2    0.870       99      0.17
    12     8  2024   144    4    17.6    1.50     -9     16      0      0      0    92.1    92.1      0     1.02      4.3      3.6      3.6    84    16.8    16.863     5.8    0.972       98      0.18
    13     8  2024   145    4    18.4    1.50     -9     29      5      0      0    92.0    92.0      0     1.02      6.2      4.4      4.4    71    16.8    16.984     6.4    1.082       98      0.20
    14     8  2024   146    4    21.6    1.50     -9     32      6      0      0    91.8    91.8      0     1.01      5.8      4.0      4.0    68    16.8    17.100     7.0    1.202       98      0.22
    15     8  2024   147    4    21.1    1.50     -9     27      4      0      0    91.7    91.7      0     1.01      4.0      3.0      3.0    73    16.8    17.225     7.7    1.334       98      0.25
    16     8  2024   148    4    19.8    1.50     -9     35      8      0      0    91.5    91.5      0     1.01      5.1      3.3      3.3    65    16.8    17.334     8.5    1.476       97      0.27
    17     8  2024   149    4    20.3    1.50     -9     35      7      0      0    91.4    91.4      0     1.00      4.3      2.8      2.8    65    16.8    17.444     9.3    1.629       97      0.30
    18     8  2024   150    4    21.4    1.50     -9     31      6      0      0    91.2    91.2      0     1.00      3.1      2.1      2.1    69    16.8    17.559    10.2    1.785       97      0.32
    19     8  2024   151    4    16.9    1.50     -9     36      8      0      0    91.0    91.0      0     0.99      3.6      2.3      2.3    64    16.8    17.666    11.0    1.941       96      0.35
    20     8  2024   152    4    16.9    1.50     -9     43     11      0      0    90.7    90.7      0     0.99      4.4      2.6      2.6    57    16.8    17.761    11.8    2.097       96      0.38
    21     8  2024   153    4    16.6    1.50     -9     46     14      0      0    90.4    90.4      0     0.98      4.7      2.5      2.5    54    16.8    17.849    12.6    2.252       95      0.40
    22     8  2024   154    4    16.8    1.50     -9     45     13      0      0    90.1    90.1      0     0.97      3.8      2.1      2.1    55    16.8    17.939    13.4    2.409       95      0.43
    23     8  2024   155    4    20.6    1.50     -9     56     22      0      0    89.7    89.7      0     0.96      6.3      2.7      2.7    44    16.8    18.010    14.2    2.562       95      0.46
    24     8  2024   156    4    19.7    1.50     -9     58     24      0      0    89.2    89.2      0     0.95      6.1      2.6      2.6    42    16.8    18.077    15.0    2.715       94      0.48
    25     8  2024   157    4    18.3    1.50     -9     56     21      0      0    88.7    88.7      0     0.94      4.5      2.0      2.0    44    16.8    18.147    15.8    2.870       94      0.51
    26     8  2024   158    4    17.9    1.50     -9     53     19      0      0    88.2    88.2      0     0.93      3.3      1.5      1.5    47    16.8    18.220    16.6    3.028       93      0.53
    27     8  2024   159    4    16.9    1.50     -9     58     23      0      0    87.6    87.6      0     0.92      4.0      1.7      1.7    42    16.8    18.286    17.4    3.184       93      0.56
    28     8  2024   160    4    18.0    1.50     -9     62     27      0      0    87.0    87.0      0     0.91      4.7      1.8      1.8    38    16.8    18.344    18.2    3.338       92      0.58
    29     8  2024   161    4    21.7    1.50     -9     63     28      0      0    86.3    86.3      0     0.90      4.4      1.6      1.6    37    16.8    18.401    19.0    3.492       92      0.61
    30     8  2024   162    4    20.4    1.50     -9     63     28      0      0    85.5    85.5      0     0.89      3.7      1.4      1.4    37    16.8    18.456    19.8    3.647       91      0.63
    31     8  2024   163    4    18.4    1.50     -9     60     25      0      0    84.7    84.7      0     0.87      2.6      1.0      1.0    40    16.8    18.514    20.5    3.803       91      0.66
     1     9  2024   164    4    18.1    1.50     -9     64     29      0      0    83.9    83.9      0     0.86      3.2      1.1      1.1    36    16.8    18.567    21.3    3.959       90      0.69
     2     9  2024   165    4    16.6    1.50     -9     66     31      0      0    82.9    82.9      0     0.84      3.4      1.2      1.2    34    16.8    18.615    22.1    4.113       90      0.71
     3     9  2024   166    4    20.1    1.50     -9     68     34      0      0    81.9    81.9      0     0.82      3.6      1.2      1.2    32    16.8    18.659    22.9    4.266       89      0.74
     4     9  2024   167    4    20.9    1.50     -9     72     39      0      0    80.8    80.8      0     0.80      4.6      1.3      1.3    28    16.8    18.697    23.6    4.416       89      0.76
     5     9  2024   168    4    20.3    1.50     -9     74     42      0      0    79.6    79.6      0     0.78      4.8      1.3      1.3    26    16.8    18.732    24.4    4.565       88      0.78
     6     9  2024   169    4    19.4    1.50     -9     72     40      0      0    78.3    78.3      0     0.76      3.6      1.0      1.0    28    16.8    18.767    25.1    4.716       88      0.81
     7     9  2024   170    4    19.4    1.50     -9     73     41      0      0    76.9    76.9      0     0.74      3.5      0.9      0.9    27    16.8    18.800    25.9    4.865       87      0.83
     8     9  2024   171    4    21.5    1.50     -9     75     44      0      0    75.4    75.4      0     0.71      3.8      0.9      0.9    25    16.8    18.830    26.6    5.014       87      0.86
     9     9  2024   172    4    18.4    1.50     -9      0      0      0      0    74.4    74.4      0     0.70      1.5      1.5      1.5   100    16.8    18.947    27.5    5.203       87      0.89
    10     9  2024   173    4    17.1    1.50     -9      0     -9      0      0    73.5    73.5      0     0.68      1.8      1.8      1.8   100    16.8    19.062    28.3    5.393       87      0.91
    11     9  2024   174    4    13.4    1.50     -9      0     -9      0      0    72.5    72.5      3     0.67      1.5      1.5      1.5   100    16.8    19.171    29.1    5.584       87      0.94
    12     9  2024   175    4    11.9    1.50     -9      0     -9      0      0    71.5    71.5      6     0.65      1.2      1.2      1.2   100    16.8    19.273    30.0    5.775       87      0.97
    13     9  2024   176    4    10.6    1.50     -9      0     -9      0      0    70.4    70.4     13     0.63      0.8      0.8      0.8   100    16.8    19.366    30.8    5.965       87      1.00
    14     9  2024   177    4    14.0    1.50     -9      0     -9      0      0    69.3    69.3      0     0.61      1.6      1.6      1.6   100    16.8    19.469    31.6    6.159       87      1.03
    15     9  2024   178    4    12.5    1.50     -9      0     -9      0      0    68.0    68.0      5     0.60      1.1      1.1      1.1   100    16.8    19.565    32.5    6.353       87      1.06
    16     9  2024   179    4    14.5    1.50     -9      0     -9      0      0    66.7    66.7      0     0.58      0.7      0.7      0.7   100    16.8    19.661    33.3    6.549       87      1.09
    17     9  2024   180    4    19.9    1.50     -9      0     -9      0      0    65.2    65.2      0     0.55      1.3      1.3      1.3   100    16.8    19.755    34.1    6.746       87      1.12
    18     9  2024   181    4    19.9    1.50     -9      0     -9      0      0    63.6    63.6      0     0.53      1.2      1.2      1.2   100    16.8    19.844    35.0    6.942       86      1.15
    19     9  2024   182    4    17.6    1.50     -9      0     -9      0      0    61.9    61.9      0     0.51      1.3      1.3      1.3   100    16.8    19.929    35.8    7.139       86      1.18
    20     9  2024   183    4    15.9    1.50     -9      0     -9      0      0    60.1    60.1      0     0.48      1.5      1.5      1.5   100    16.8    20.010    36.7    7.336       86      1.21
    21     9  2024   184    4    15.3    1.50     -9      0     -9      0      0    58.1    58.1      0     0.45      1.4      1.4      1.4   100    16.8    20.086    37.5    7.532       86      1.24
    22     9  2024   185    4    16.2    1.50     -9      0     -9      0      0    56.0    56.0      0     0.43      1.1      1.1      1.1   100    16.8    20.158    38.3    7.728       86      1.27
    23     9  2024   186    4    16.3    1.50     -9      0     -9      0      0    53.8    53.8      0     0.40      1.0      1.0      1.0   100    16.8    20.225    39.2    7.923       86      1.30
    24     9  2024   187    4    14.0    1.50     -9      0     -9      0      0    51.3    51.3      0     0.37      0.5      0.5      0.5   100    16.8    20.286    40.0    8.117       86      1.33
    25     9  2024   188    4    16.2    1.50     -9      0     -9      0      0    48.7    48.7      0     0.33      0.7      0.7      0.7   100    16.8    20.342    40.9    8.310       86      1.36
    26     9  2024   189    4    16.6    1.50     -9      0     -9      0      0    45.8    45.8      0     0.30      0.6      0.6      0.6   100    16.8    20.393    41.7    8.502       86      1.39
    27     9  2024   190    4    17.0    1.50     -9      0     -9      0      0    42.8    42.8      0     0.27      1.0      1.0      1.0   100    16.8    20.437    42.5    8.692       86      1.41
    28     9  2024   191    4    11.4    1.50     -9      0     -9      0      0    39.5    39.5      8     0.23      0.5      0.5      0.5   100    16.8    20.473    43.4    8.879       86      1.44
    29     9  2024   192    4     9.3    1.50     -9      0     -9      0      0    36.0    36.0     22     0.19      0.2      0.2      0.2   100    16.8    20.498    44.2    9.062       86      1.47
    30     9  2024   193    4     9.3    1.50     -9      0     -9      0      0    32.2    32.2     22     0.16      0.3      0.3      0.3   100    16.8    20.519    45.0    9.243       86      1.50
     1    10  2024   194    4    10.4    1.50     -9      0     -9      0      0    28.1    28.1     13     0.12      0.1      0.1      0.1   100    16.8    20.537    45.9    9.424       86      1.53
     2    10  2024   195    4     9.6    1.50     -9      0     -9      0      0    23.7    23.7     20     0.09      0.0      0.0      0.0   100    16.8    20.549    46.7    9.602       86      1.55
     3    10  2024   196    4    11.3    1.50     -9      0     -9      0      0    18.9    18.9      9     0.06      0.0      0.0      0.0   100    16.8    20.558    46.7    9.606       86      1.55
     4    10  2024   197    4    11.5    1.50     -9      0     -9      0      0    13.8    13.8      8     0.03      0.0      0.0      0.0   100    16.8    20.563    46.7    9.608       86      1.55

Legend

DAP          : Days after planting
Stage        : 0: before/after planting
Stage        : 1: emergence or transplant recovery
Stage        : 2: vegetative stage
Stage        : 3: flowering
Stage        : 4: yield formation and ripening
GD           : Growing degrees
Z            : Effective rooting depth
StExp        : Percent water stress reducing leaf expansion
StSto        : Percent water stress inducing stomatal closure
StSen        : Percent water stress triggering early canopy senescence
StSalt       : Percent salinity stress
StWeed       : Relative cover of weeds
CC           : Green total Canopy Cover of crop and weeds
CCw          : Green crop Canopy Cover in weed infested field
StTr         : Percent temperature stress affecting crop transpiration
Kc(Tr)       : Crop coefficient for transpiration
Trx          : Maximum total transpiration of crop and weeds
Tr           : Total transpiration of crop and weeds
TrW          : Crop transpiration in weed infested field
Tr/Trx       : Relative total transpiration of crop and weeds (100 Tr/Trx)
WP           : Crop water productivity adjusted for CO2, soil fertility and products synthesized
Biomass      : Cumulative crop biomass
HI           : Harvest Index adjusted for failure of pollination, inadequate photosynthesis and water stress
Yield Part   : Crop yield (HI x Biomass)
Brelative    : Relative biomass (Reference: no water, no soil fertility, no soil salinity stress, no weed infestation)
WPet         : ET Water productivity for yield part (kg yield produced per m3 water evapotranspired)
